xflr5 v6.62

 Calculated polar for: MH 45  9.85%

 1 1 Reynolds number fixed          Mach number fixed         

 xtrf =   1.000 (top)        1.000 (bottom)
 Mach =   0.000     Re =     0.060 e 6     Ncrit =   6.000

  alpha     CL        CD       CDp       Cm    Top Xtr Bot Xtr   Cpmin    Chinge    XCp    
 ------- -------- --------- --------- -------- ------- ------- -------- --------- ---------
  -5.000  -0.4183   0.02537   0.01580  -0.0226  1.0000  0.0497  -3.0821   0.0000   0.0000   0.0000   0.1912
  -4.500  -0.3834   0.02266   0.01298  -0.0196  1.0000  0.0652  -2.9796   0.0000   0.0000   0.0000   0.1945
  -4.000  -0.3529   0.01989   0.01053  -0.0161  1.0000  0.1301  -2.9167   0.0000   0.0000   0.0000   0.2000
  -3.500  -0.2928   0.01789   0.00969  -0.0189  0.9835  0.3951  -2.5570   0.0000   0.0000   0.0000   0.1814
  -3.000  -0.2163   0.01701   0.00911  -0.0228  0.9609  0.5508  -2.0232   0.0000   0.0000   0.0000   0.1402
  -2.500  -0.1471   0.01633   0.00875  -0.0239  0.9379  0.7102  -1.5297   0.0000   0.0000   0.0000   0.0825
  -2.000  -0.0505   0.01607   0.00851  -0.0287  0.9187  0.8945  -0.9577   0.0000   0.0000   0.0000  -0.3293
  -1.500   0.0764   0.01587   0.00770  -0.0419  0.8985  1.0000  -0.4294   0.0000   0.0000   0.0000   0.8032
  -1.000   0.1200   0.01620   0.00759  -0.0402  0.8663  1.0000  -0.4480   0.0000   0.0000   0.0000   0.5868
  -0.500   0.1624   0.01660   0.00766  -0.0378  0.8363  1.0000  -0.4896   0.0000   0.0000   0.0000   0.4828
   0.000   0.2054   0.01702   0.00781  -0.0352  0.8074  1.0000  -0.5357   0.0000   0.0000   0.0000   0.4206
   0.500   0.2492   0.01742   0.00798  -0.0325  0.7795  1.0000  -0.5876   0.0000   0.0000   0.0000   0.3790
   1.000   0.2933   0.01776   0.00813  -0.0295  0.7529  1.0000  -0.6469   0.0000   0.0000   0.0000   0.3487
   1.500   0.3393   0.01812   0.00838  -0.0271  0.7235  1.0000  -0.7148   0.0000   0.0000   0.0000   0.3277
   2.000   0.3860   0.01845   0.00863  -0.0248  0.6938  1.0000  -0.7920   0.0000   0.0000   0.0000   0.3115
   2.500   0.4334   0.01873   0.00885  -0.0224  0.6635  1.0000  -0.8785   0.0000   0.0000   0.0000   0.2987
   3.000   0.4814   0.01898   0.00912  -0.0201  0.6319  1.0000  -0.9748   0.0000   0.0000   0.0000   0.2884
   3.500   0.5299   0.01922   0.00933  -0.0179  0.5985  1.0000  -1.0841   0.0000   0.0000   0.0000   0.2800
   4.000   0.5788   0.01946   0.00956  -0.0157  0.5635  1.0000  -1.2108   0.0000   0.0000   0.0000   0.2729
   4.500   0.6279   0.01982   0.00998  -0.0137  0.5250  1.0000  -1.3473   0.0000   0.0000   0.0000   0.2672
   5.000   0.6768   0.02027   0.01043  -0.0118  0.4837  1.0000  -1.5033   0.0000   0.0000   0.0000   0.2624
   5.500   0.7253   0.02093   0.01117  -0.0101  0.4391  1.0000  -1.6782   0.0000   0.0000   0.0000   0.2585
   6.000   0.7730   0.02178   0.01204  -0.0085  0.3923  1.0000  -1.8730   0.0000   0.0000   0.0000   0.2551
   6.500   0.8195   0.02287   0.01314  -0.0071  0.3440  1.0000  -2.1037   0.0000   0.0000   0.0000   0.2521
   7.000   0.8643   0.02425   0.01459  -0.0057  0.2955  1.0000  -2.3979   0.0000   0.0000   0.0000   0.2495
   7.500   0.9072   0.02595   0.01631  -0.0043  0.2499  1.0000  -2.6948   0.0000   0.0000   0.0000   0.2471
   8.000   0.9483   0.02798   0.01828  -0.0029  0.2112  1.0000  -3.1472   0.0000   0.0000   0.0000   0.2448
   8.500   0.9871   0.03039   0.02084  -0.0015  0.1764  1.0000  -3.6149   0.0000   0.0000   0.0000   0.2426
   9.000   1.0245   0.03313   0.02368   0.0000  0.1492  1.0000  -4.0959   0.0000   0.0000   0.0000   0.2405
   9.500   1.0579   0.03646   0.02742   0.0016  0.1255  1.0000  -4.5372   0.0000   0.0000   0.0000   0.2384
  10.000   1.0868   0.03981   0.03093   0.0032  0.1057  1.0000  -5.0083   0.0000   0.0000   0.0000   0.2363
  10.500   1.1117   0.04412   0.03559   0.0050  0.0909  1.0000  -5.4620   0.0000   0.0000   0.0000   0.2341
  11.000   1.1215   0.04913   0.04115   0.0068  0.0788  1.0000  -5.7891   0.0000   0.0000   0.0000   0.2319
  11.500   1.1216   0.05528   0.04778   0.0085  0.0719  1.0000  -6.0164   0.0000   0.0000   0.0000   0.2297
  12.000   1.0962   0.06322   0.05630   0.0078  0.0676  1.0000  -6.0004   0.0000   0.0000   0.0000   0.2294
  12.500   1.0951   0.06915   0.06219   0.0072  0.0610  1.0000  -6.2791   0.0000   0.0000   0.0000   0.2291
  13.000   1.0511   0.08169   0.07522   0.0009  0.0608  1.0000  -6.0080   0.0000   0.0000   0.0000   0.2341
  14.000   0.8652   0.14362   0.13726  -0.0370  0.0736  1.0000  -3.5275   0.0000   0.0000   0.0000   0.2784
  14.500   0.8462   0.15996   0.15350  -0.0451  0.0726  1.0000  -3.1619   0.0000   0.0000   0.0000   0.2889
  15.000   0.8377   0.17321   0.16669  -0.0519  0.0694  1.0000  -2.9387   0.0000   0.0000   0.0000   0.2974


