xflr5 v6.62

 Calculated polar for: MH 45  9.85%

 1 1 Reynolds number fixed          Mach number fixed         

 xtrf =   1.000 (top)        1.000 (bottom)
 Mach =   0.000     Re =     0.020 e 6     Ncrit =   6.000

  alpha     CL        CD       CDp       Cm    Top Xtr Bot Xtr   Cpmin    Chinge    XCp    
 ------- -------- --------- --------- -------- ------- ------- -------- --------- ---------
  -5.000  -0.4162   0.03932   0.02706  -0.0253  1.0000  0.2157  -2.8473   0.0000   0.0000   0.0000   0.1851
  -4.500  -0.3828   0.03514   0.02347  -0.0207  1.0000  0.3358  -2.7663   0.0000   0.0000   0.0000   0.1920
  -4.000  -0.3619   0.03240   0.02169  -0.0106  1.0000  0.5122  -2.5945   0.0000   0.0000   0.0000   0.2169
  -3.500  -0.3358   0.03014   0.01980  -0.0004  1.0000  0.6675  -2.3410   0.0000   0.0000   0.0000   0.2451
  -3.000  -0.1008   0.02724   0.01495  -0.0240  1.0000  0.9850  -1.2874   0.0000   0.0000   0.0000   0.0028
  -2.500  -0.0891   0.02570   0.01300  -0.0252  1.0000  1.0000  -1.1247   0.0000   0.0000   0.0000  -0.0417
  -2.000  -0.0944   0.02546   0.01221  -0.0199  1.0000  1.0000  -0.9965   0.0000   0.0000   0.0000   0.0331
  -1.500  -0.0827   0.02566   0.01167  -0.0158  1.0000  1.0000  -0.7979   0.0000   0.0000   0.0000   0.0535
  -1.000  -0.0603   0.02609   0.01146  -0.0130  1.0000  1.0000  -0.5734   0.0000   0.0000   0.0000   0.0284
  -0.500  -0.0328   0.02673   0.01154  -0.0112  1.0000  1.0000  -0.4550   0.0000   0.0000   0.0000  -0.0969
   0.000  -0.0026   0.02756   0.01192  -0.0099  1.0000  1.0000  -0.3967   0.0000   0.0000   0.0000  -3.5205
   0.500   0.0286   0.02862   0.01257  -0.0092  1.0000  1.0000  -0.4166   0.0000   0.0000   0.0000   0.5688
   1.000   0.0601   0.02992   0.01358  -0.0089  1.0000  1.0000  -0.4463   0.0000   0.0000   0.0000   0.3944
   1.500   0.1558   0.03264   0.01607  -0.0205  0.9607  1.0000  -0.5240   0.0000   0.0000   0.0000   0.3785
   2.000   0.2446   0.03545   0.01884  -0.0300  0.9166  1.0000  -0.6084   0.0000   0.0000   0.0000   0.3696
   2.500   0.3231   0.03824   0.02176  -0.0369  0.8718  1.0000  -0.6968   0.0000   0.0000   0.0000   0.3608
   3.000   0.3952   0.04106   0.02476  -0.0419  0.8269  1.0000  -0.7906   0.0000   0.0000   0.0000   0.3524
   3.500   0.4598   0.04387   0.02780  -0.0447  0.7822  1.0000  -0.8883   0.0000   0.0000   0.0000   0.3434
   4.000   0.5152   0.04659   0.03087  -0.0453  0.7377  1.0000  -0.9889   0.0000   0.0000   0.0000   0.3339
   4.500   0.5574   0.04940   0.03394  -0.0442  0.6926  1.0000  -1.0838   0.0000   0.0000   0.0000   0.3249
   5.000   0.5986   0.05228   0.03711  -0.0426  0.6477  1.0000  -1.1810   0.0000   0.0000   0.0000   0.3165
   5.500   0.6399   0.05517   0.04044  -0.0407  0.6024  1.0000  -1.2954   0.0000   0.0000   0.0000   0.3085
   6.000   0.6804   0.05802   0.04366  -0.0381  0.5568  1.0000  -1.4131   0.0000   0.0000   0.0000   0.3006
   6.500   0.7217   0.06074   0.04687  -0.0350  0.5118  1.0000  -1.5551   0.0000   0.0000   0.0000   0.2927
   7.000   0.7498   0.06464   0.05113  -0.0325  0.4681  1.0000  -1.6710   0.0000   0.0000   0.0000   0.2871
   7.500   0.7713   0.06951   0.05629  -0.0306  0.4281  1.0000  -1.7744   0.0000   0.0000   0.0000   0.2831
   8.000   0.7863   0.07541   0.06245  -0.0296  0.3922  1.0000  -1.8708   0.0000   0.0000   0.0000   0.2806
   8.500   0.7929   0.08229   0.06950  -0.0294  0.3610  1.0000  -1.9435   0.0000   0.0000   0.0000   0.2796
   9.000   0.8034   0.08949   0.07698  -0.0293  0.3356  1.0000  -2.0269   0.0000   0.0000   0.0000   0.2785
   9.500   0.7918   0.09868   0.08617  -0.0315  0.3139  1.0000  -2.0069   0.0000   0.0000   0.0000   0.2814
  10.000   0.7873   0.10826   0.09581  -0.0341  0.3003  1.0000  -1.9957   0.0000   0.0000   0.0000   0.2845
  10.500   0.7862   0.11663   0.10426  -0.0356  0.2808  1.0000  -2.0071   0.0000   0.0000   0.0000   0.2861
  11.000   0.7859   0.12608   0.11379  -0.0382  0.2703  1.0000  -2.0126   0.0000   0.0000   0.0000   0.2890
  11.500   0.7815   0.13581   0.12358  -0.0415  0.2629  1.0000  -2.0046   0.0000   0.0000   0.0000   0.2931
  12.000   0.7933   0.14361   0.13155  -0.0422  0.2435  1.0000  -2.1326   0.0000   0.0000   0.0000   0.2927
  12.500   0.7951   0.15399   0.14198  -0.0457  0.2425  1.0000  -2.1398   0.0000   0.0000   0.0000   0.2967
  13.000   0.7951   0.16405   0.15210  -0.0496  0.2424  1.0000  -2.1268   0.0000   0.0000   0.0000   0.3012
  13.500   0.7869   0.17214   0.16019  -0.0537  0.2382  1.0000  -2.0750   0.0000   0.0000   0.0000   0.3065
  14.000   0.7862   0.18186   0.16995  -0.0587  0.2518  1.0000  -2.0240   0.0000   0.0000   0.0000   0.3125
  14.500   0.7832   0.19657   0.18479  -0.0700  0.3548  1.0000  -1.8469   0.0000   0.0000   0.0000   0.3270
  15.000   0.7890   0.20351   0.19177  -0.0730  0.3499  1.0000  -1.8640   0.0000   0.0000   0.0000   0.3295


