xflr5 v6.62

 Calculated polar for: MH 45  9.85%

 1 1 Reynolds number fixed          Mach number fixed         

 xtrf =   1.000 (top)        1.000 (bottom)
 Mach =   0.000     Re =     0.030 e 6     Ncrit =   6.000

  alpha     CL        CD       CDp       Cm    Top Xtr Bot Xtr   Cpmin    Chinge    XCp    
 ------- -------- --------- --------- -------- ------- ------- -------- --------- ---------
  -5.000  -0.4099   0.03268   0.02135  -0.0257  1.0000  0.1270  -2.9379   0.0000   0.0000   0.0000   0.1827
  -4.500  -0.3660   0.02850   0.01734  -0.0240  1.0000  0.2055  -2.8822   0.0000   0.0000   0.0000   0.1801
  -4.000  -0.3431   0.02586   0.01584  -0.0184  1.0000  0.3953  -2.7294   0.0000   0.0000   0.0000   0.1923
  -3.500  -0.3208   0.02438   0.01491  -0.0111  1.0000  0.5431  -2.4633   0.0000   0.0000   0.0000   0.2117
  -3.000  -0.2926   0.02292   0.01380  -0.0041  1.0000  0.6812  -2.1603   0.0000   0.0000   0.0000   0.2325
  -2.500  -0.1643   0.02195   0.01241  -0.0123  1.0000  0.9394  -1.4602   0.0000   0.0000   0.0000   0.1704
  -2.000  -0.1078   0.02136   0.01089  -0.0185  1.0000  1.0000  -1.1000   0.0000   0.0000   0.0000   0.0727
  -1.500  -0.0973   0.02160   0.01049  -0.0144  1.0000  1.0000  -0.9009   0.0000   0.0000   0.0000   0.0970
  -1.000  -0.0729   0.02209   0.01036  -0.0121  1.0000  1.0000  -0.6568   0.0000   0.0000   0.0000   0.0798
  -0.500   0.0026   0.02315   0.01083  -0.0189  0.9776  1.0000  -0.4254   0.0000   0.0000   0.0000   7.6981
   0.000   0.1002   0.02448   0.01169  -0.0290  0.9437  1.0000  -0.4503   0.0000   0.0000   0.0000   0.5391
   0.500   0.1915   0.02580   0.01277  -0.0373  0.9084  1.0000  -0.5246   0.0000   0.0000   0.0000   0.4434
   1.000   0.2684   0.02713   0.01395  -0.0421  0.8717  1.0000  -0.5986   0.0000   0.0000   0.0000   0.4050
   1.500   0.3351   0.02844   0.01521  -0.0443  0.8350  1.0000  -0.6770   0.0000   0.0000   0.0000   0.3800
   2.000   0.3889   0.02978   0.01657  -0.0439  0.7975  1.0000  -0.7540   0.0000   0.0000   0.0000   0.3603
   2.500   0.4371   0.03113   0.01795  -0.0424  0.7593  1.0000  -0.8338   0.0000   0.0000   0.0000   0.3440
   3.000   0.4863   0.03232   0.01922  -0.0403  0.7226  1.0000  -0.9239   0.0000   0.0000   0.0000   0.3297
   3.500   0.5309   0.03361   0.02071  -0.0379  0.6838  1.0000  -1.0207   0.0000   0.0000   0.0000   0.3178
   4.000   0.5766   0.03470   0.02196  -0.0351  0.6451  1.0000  -1.1309   0.0000   0.0000   0.0000   0.3068
   4.500   0.6232   0.03554   0.02307  -0.0317  0.6069  1.0000  -1.2525   0.0000   0.0000   0.0000   0.2966
   5.000   0.6668   0.03652   0.02429  -0.0283  0.5653  1.0000  -1.3877   0.0000   0.0000   0.0000   0.2878
   5.500   0.7116   0.03730   0.02531  -0.0246  0.5229  1.0000  -1.5361   0.0000   0.0000   0.0000   0.2794
   6.000   0.7597   0.03748   0.02576  -0.0201  0.4805  1.0000  -1.7205   0.0000   0.0000   0.0000   0.2708
   6.500   0.8041   0.03827   0.02676  -0.0161  0.4339  1.0000  -1.9217   0.0000   0.0000   0.0000   0.2639
   7.000   0.8468   0.03952   0.02819  -0.0124  0.3862  1.0000  -2.1614   0.0000   0.0000   0.0000   0.2581
   7.500   0.8861   0.04156   0.03053  -0.0094  0.3395  1.0000  -2.4228   0.0000   0.0000   0.0000   0.2535
   8.000   0.9200   0.04466   0.03392  -0.0070  0.2965  1.0000  -2.6755   0.0000   0.0000   0.0000   0.2500
   8.500   0.9578   0.04745   0.03685  -0.0043  0.2591  1.0000  -3.0922   0.0000   0.0000   0.0000   0.2462
   9.000   0.9814   0.05254   0.04236  -0.0028  0.2290  1.0000  -3.3969   0.0000   0.0000   0.0000   0.2441
   9.500   0.9883   0.05910   0.04948  -0.0021  0.2043  1.0000  -3.5908   0.0000   0.0000   0.0000   0.2428
  10.000   0.9757   0.06842   0.05919  -0.0030  0.1907  1.0000  -3.6182   0.0000   0.0000   0.0000   0.2433
  10.500   0.9017   0.08630   0.07699  -0.0124  0.1898  1.0000  -3.1389   0.0000   0.0000   0.0000   0.2536
  11.000   0.8487   0.10546   0.09593  -0.0237  0.1867  1.0000  -2.7274   0.0000   0.0000   0.0000   0.2676
  11.500   0.8428   0.11615   0.10664  -0.0271  0.1780  1.0000  -2.7250   0.0000   0.0000   0.0000   0.2714
  12.000   0.8214   0.12882   0.11922  -0.0333  0.1696  1.0000  -2.5715   0.0000   0.0000   0.0000   0.2794
  12.500   0.8198   0.13884   0.12926  -0.0365  0.1617  1.0000  -2.5783   0.0000   0.0000   0.0000   0.2830
  13.000   0.8109   0.15077   0.14118  -0.0419  0.1609  1.0000  -2.4724   0.0000   0.0000   0.0000   0.2899
  13.500   0.8056   0.16141   0.15182  -0.0468  0.1579  1.0000  -2.3987   0.0000   0.0000   0.0000   0.2959
  14.000   0.8136   0.16965   0.16013  -0.0490  0.1461  1.0000  -2.4647   0.0000   0.0000   0.0000   0.2975
  14.500   0.8221   0.18041   0.17095  -0.0525  0.1484  1.0000  -2.4601   0.0000   0.0000   0.0000   0.3007


