xflr5 v6.62

 Calculated polar for: MH 45  9.85%

 1 1 Reynolds number fixed          Mach number fixed         

 xtrf =   1.000 (top)        1.000 (bottom)
 Mach =   0.000     Re =     0.160 e 6     Ncrit =   6.000

  alpha     CL        CD       CDp       Cm    Top Xtr Bot Xtr   Cpmin    Chinge    XCp    
 ------- -------- --------- --------- -------- ------- ------- -------- --------- ---------
  -5.000  -0.4130   0.01854   0.01070  -0.0196  0.8940  0.0179  -3.3209   0.0000   0.0000   0.0000   0.1977
  -4.500  -0.3668   0.01676   0.00868  -0.0173  0.8713  0.0205  -3.0718   0.0000   0.0000   0.0000   0.1981
  -4.000  -0.3198   0.01517   0.00676  -0.0151  0.8514  0.0315  -2.8713   0.0000   0.0000   0.0000   0.1983
  -3.000  -0.2257   0.01220   0.00505  -0.0121  0.8148  0.3377  -2.1517   0.0000   0.0000   0.0000   0.1921
  -2.500  -0.1758   0.01156   0.00467  -0.0106  0.7965  0.4512  -1.7102   0.0000   0.0000   0.0000   0.1851
  -2.000  -0.1257   0.01102   0.00435  -0.0090  0.7782  0.5548  -1.2868   0.0000   0.0000   0.0000   0.1740
  -1.500  -0.0768   0.01046   0.00410  -0.0067  0.7599  0.6779  -0.8898   0.0000   0.0000   0.0000   0.1567
  -1.000  -0.0220   0.00997   0.00396  -0.0050  0.7416  0.8351  -0.5099   0.0000   0.0000   0.0000   0.0115
  -0.500   0.0675   0.00985   0.00373  -0.0107  0.7222  0.9627  -0.4483   0.0000   0.0000   0.0000   0.4088
   0.000   0.1420   0.00985   0.00349  -0.0144  0.7001  1.0000  -0.5110   0.0000   0.0000   0.0000   0.3505
   0.500   0.1940   0.00990   0.00332  -0.0135  0.6771  1.0000  -0.5668   0.0000   0.0000   0.0000   0.3180
   1.000   0.2462   0.00999   0.00322  -0.0126  0.6530  1.0000  -0.6290   0.0000   0.0000   0.0000   0.2990
   1.500   0.2987   0.01010   0.00317  -0.0117  0.6265  1.0000  -0.7009   0.0000   0.0000   0.0000   0.2867
   2.000   0.3516   0.01026   0.00319  -0.0109  0.5971  1.0000  -0.7829   0.0000   0.0000   0.0000   0.2782
   2.500   0.4046   0.01046   0.00325  -0.0102  0.5652  1.0000  -0.8742   0.0000   0.0000   0.0000   0.2719
   3.000   0.4576   0.01072   0.00337  -0.0095  0.5308  1.0000  -0.9754   0.0000   0.0000   0.0000   0.2671
   3.500   0.5107   0.01106   0.00362  -0.0088  0.4935  1.0000  -1.0907   0.0000   0.0000   0.0000   0.2633
   4.000   0.5636   0.01147   0.00391  -0.0083  0.4543  1.0000  -1.2239   0.0000   0.0000   0.0000   0.2603
   4.500   0.6163   0.01197   0.00433  -0.0078  0.4148  1.0000  -1.3684   0.0000   0.0000   0.0000   0.2578
   5.000   0.6687   0.01254   0.00483  -0.0073  0.3738  1.0000  -1.5318   0.0000   0.0000   0.0000   0.2557
   5.500   0.7206   0.01320   0.00545  -0.0069  0.3322  1.0000  -1.7192   0.0000   0.0000   0.0000   0.2539
   6.000   0.7718   0.01398   0.00616  -0.0065  0.2884  1.0000  -1.9294   0.0000   0.0000   0.0000   0.2522
   6.500   0.8220   0.01489   0.00700  -0.0061  0.2435  1.0000  -2.1936   0.0000   0.0000   0.0000   0.2507
   7.000   0.8712   0.01595   0.00805  -0.0056  0.2013  1.0000  -2.5171   0.0000   0.0000   0.0000   0.2492
   7.500   0.9187   0.01722   0.00926  -0.0051  0.1651  1.0000  -2.8688   0.0000   0.0000   0.0000   0.2477
   8.000   0.9647   0.01863   0.01066  -0.0045  0.1344  1.0000  -3.3980   0.0000   0.0000   0.0000   0.2462
   8.500   1.0097   0.02010   0.01228  -0.0037  0.1099  1.0000  -3.9893   0.0000   0.0000   0.0000   0.2447
   9.000   1.0510   0.02191   0.01412  -0.0028  0.0897  1.0000  -4.6360   0.0000   0.0000   0.0000   0.2430
   9.500   1.0909   0.02376   0.01612  -0.0018  0.0724  1.0000  -5.3028   0.0000   0.0000   0.0000   0.2413
  10.000   1.1267   0.02587   0.01841  -0.0005  0.0580  1.0000  -5.9626   0.0000   0.0000   0.0000   0.2394
  10.500   1.1547   0.02859   0.02131   0.0011  0.0472  1.0000  -6.5697   0.0000   0.0000   0.0000   0.2373
  11.000   1.1787   0.03131   0.02434   0.0029  0.0392  1.0000  -7.1492   0.0000   0.0000   0.0000   0.2350
  11.500   1.1878   0.03510   0.02836   0.0049  0.0335  1.0000  -7.5874   0.0000   0.0000   0.0000   0.2326
  12.000   1.1958   0.03939   0.03295   0.0057  0.0293  1.0000  -8.0008   0.0000   0.0000   0.0000   0.2311
  12.500   1.1903   0.04547   0.03919   0.0057  0.0258  1.0000  -8.2666   0.0000   0.0000   0.0000   0.2302
  13.000   1.1907   0.05141   0.04556   0.0043  0.0228  1.0000  -8.5794   0.0000   0.0000   0.0000   0.2306
  13.500   1.1832   0.05876   0.05320   0.0013  0.0201  1.0000  -8.8136   0.0000   0.0000   0.0000   0.2321
  14.000   1.1651   0.06820   0.06285  -0.0034  0.0181  1.0000  -8.9153   0.0000   0.0000   0.0000   0.2352
  14.500   1.1422   0.07926   0.07424  -0.0088  0.0167  1.0000  -8.8822   0.0000   0.0000   0.0000   0.2391
  15.000   1.1170   0.09195   0.08730  -0.0157  0.0157  1.0000  -8.7679   0.0000   0.0000   0.0000   0.2447


