xflr5 v6.62

 Calculated polar for: MH 45  9.85%

 1 1 Reynolds number fixed          Mach number fixed         

 xtrf =   1.000 (top)        1.000 (bottom)
 Mach =   0.000     Re =     0.500 e 6     Ncrit =   6.000

  alpha     CL        CD       CDp       Cm    Top Xtr Bot Xtr   Cpmin    Chinge    XCp    
 ------- -------- --------- --------- -------- ------- ------- -------- --------- ---------
  -5.000  -0.4667   0.01337   0.00668  -0.0051  0.7779  0.0071  -4.1204   0.0000   0.0000   0.0000   0.2346
  -4.500  -0.4130   0.01247   0.00564  -0.0046  0.7633  0.0084  -3.4531   0.0000   0.0000   0.0000   0.2346
  -4.000  -0.3590   0.01144   0.00438  -0.0039  0.7488  0.0090  -3.0477   0.0000   0.0000   0.0000   0.2350
  -3.500  -0.3041   0.01059   0.00333  -0.0033  0.7339  0.0125  -2.7007   0.0000   0.0000   0.0000   0.2350
  -3.000  -0.2502   0.00961   0.00258  -0.0029  0.7186  0.0806  -2.3116   0.0000   0.0000   0.0000   0.2344
  -2.500  -0.1971   0.00864   0.00216  -0.0027  0.7029  0.2260  -1.8433   0.0000   0.0000   0.0000   0.2324
  -2.000  -0.1424   0.00810   0.00189  -0.0025  0.6865  0.3240  -1.3841   0.0000   0.0000   0.0000   0.2287
  -1.500  -0.0874   0.00768   0.00168  -0.0022  0.6690  0.4133  -0.9524   0.0000   0.0000   0.0000   0.2203
  -1.000  -0.0322   0.00736   0.00152  -0.0019  0.6501  0.4916  -0.5632   0.0000   0.0000   0.0000   0.1839
  -0.500   0.0223   0.00704   0.00140  -0.0014  0.6295  0.5821  -0.4254   0.0000   0.0000   0.0000   0.3175
   0.000   0.0752   0.00667   0.00132  -0.0006  0.6073  0.6937  -0.4744   0.0000   0.0000   0.0000   0.2562
   0.500   0.1255   0.00623   0.00131   0.0012  0.5823  0.8410  -0.5267   0.0000   0.0000   0.0000   0.2383
   1.000   0.2095   0.00618   0.00135  -0.0043  0.5508  0.9682  -0.6074   0.0000   0.0000   0.0000   0.2679
   1.500   0.2865   0.00638   0.00136  -0.0088  0.5154  1.0000  -0.6954   0.0000   0.0000   0.0000   0.2779
   2.000   0.3411   0.00661   0.00142  -0.0085  0.4810  1.0000  -0.7787   0.0000   0.0000   0.0000   0.2719
   2.500   0.3956   0.00687   0.00153  -0.0083  0.4452  1.0000  -0.8715   0.0000   0.0000   0.0000   0.2675
   3.000   0.4500   0.00718   0.00168  -0.0080  0.4087  1.0000  -0.9739   0.0000   0.0000   0.0000   0.2641
   3.500   0.5042   0.00753   0.00190  -0.0078  0.3733  1.0000  -1.0907   0.0000   0.0000   0.0000   0.2613
   4.000   0.5582   0.00793   0.00216  -0.0075  0.3380  1.0000  -1.2268   0.0000   0.0000   0.0000   0.2590
   4.500   0.6121   0.00835   0.00249  -0.0073  0.3024  1.0000  -1.3747   0.0000   0.0000   0.0000   0.2571
   5.000   0.6657   0.00885   0.00285  -0.0071  0.2641  1.0000  -1.5411   0.0000   0.0000   0.0000   0.2554
   5.500   0.7188   0.00942   0.00331  -0.0069  0.2273  1.0000  -1.7342   0.0000   0.0000   0.0000   0.2539
   6.000   0.7715   0.01006   0.00383  -0.0067  0.1888  1.0000  -1.9526   0.0000   0.0000   0.0000   0.2525
   6.500   0.8238   0.01075   0.00442  -0.0065  0.1567  1.0000  -2.2332   0.0000   0.0000   0.0000   0.2511
   7.000   0.8756   0.01150   0.00512  -0.0062  0.1281  1.0000  -2.5725   0.0000   0.0000   0.0000   0.2499
   7.500   0.9266   0.01234   0.00588  -0.0059  0.1031  1.0000  -2.9666   0.0000   0.0000   0.0000   0.2486
   8.000   0.9773   0.01316   0.00669  -0.0056  0.0837  1.0000  -3.6472   0.0000   0.0000   0.0000   0.2473
   8.500   1.0264   0.01418   0.00766  -0.0052  0.0631  1.0000  -4.3616   0.0000   0.0000   0.0000   0.2460
   9.000   1.0746   0.01524   0.00869  -0.0048  0.0454  1.0000  -5.1216   0.0000   0.0000   0.0000   0.2448
   9.500   1.1211   0.01645   0.00987  -0.0043  0.0307  1.0000  -5.9136   0.0000   0.0000   0.0000   0.2434
  10.000   1.1665   0.01770   0.01116  -0.0036  0.0225  1.0000  -6.7347   0.0000   0.0000   0.0000   0.2420
  10.500   1.2095   0.01911   0.01267  -0.0028  0.0162  1.0000  -7.5744   0.0000   0.0000   0.0000   0.2405
  11.000   1.2491   0.02075   0.01437  -0.0018  0.0107  1.0000  -8.4101   0.0000   0.0000   0.0000   0.2389
  11.500   1.2847   0.02260   0.01632  -0.0006  0.0070  1.0000  -9.2179   0.0000   0.0000   0.0000   0.2371
  12.000   1.3129   0.02489   0.01874   0.0010  0.0034  1.0000  -9.9330   0.0000   0.0000   0.0000   0.2351
  12.500   1.3243   0.02806   0.02213   0.0032  0.0018  1.0000  -10.4398   0.0000   0.0000   0.0000   0.2326
  13.000   1.3345   0.03183   0.02616   0.0040  0.0015  1.0000  -10.9515   0.0000   0.0000   0.0000   0.2311
  13.500   1.3389   0.03666   0.03125   0.0038  0.0013  1.0000  -11.4057   0.0000   0.0000   0.0000   0.2303
  14.000   1.3361   0.04280   0.03767   0.0025  0.0012  1.0000  -11.7699   0.0000   0.0000   0.0000   0.2303
  14.500   1.3253   0.05055   0.04571  -0.0002  0.0011  1.0000  -12.0165   0.0000   0.0000   0.0000   0.2313
  15.000   1.3059   0.06022   0.05569  -0.0044  0.0011  1.0000  -12.1233   0.0000   0.0000   0.0000   0.2335


