xflr5 v6.62

 Calculated polar for: MH 45  9.85%

 1 1 Reynolds number fixed          Mach number fixed         

 xtrf =   1.000 (top)        1.000 (bottom)
 Mach =   0.000     Re =     0.040 e 6     Ncrit =   6.000

  alpha     CL        CD       CDp       Cm    Top Xtr Bot Xtr   Cpmin    Chinge    XCp    
 ------- -------- --------- --------- -------- ------- ------- -------- --------- ---------
  -5.000  -0.4134   0.02922   0.01860  -0.0242  1.0000  0.0849  -3.0039   0.0000   0.0000   0.0000   0.1869
  -4.500  -0.3677   0.02554   0.01490  -0.0227  1.0000  0.1294  -2.9292   0.0000   0.0000   0.0000   0.1838
  -4.000  -0.3393   0.02243   0.01288  -0.0193  1.0000  0.3078  -2.8236   0.0000   0.0000   0.0000   0.1890
  -3.500  -0.3166   0.02135   0.01240  -0.0138  1.0000  0.4679  -2.5457   0.0000   0.0000   0.0000   0.2026
  -3.000  -0.2860   0.02023   0.01161  -0.0089  1.0000  0.5936  -2.2222   0.0000   0.0000   0.0000   0.2153
  -2.500  -0.2518   0.01926   0.01103  -0.0033  1.0000  0.7540  -1.8799   0.0000   0.0000   0.0000   0.2333
  -2.000  -0.1194   0.01897   0.01012  -0.0173  1.0000  1.0000  -1.1787   0.0000   0.0000   0.0000   0.0996
  -1.500  -0.0399   0.01937   0.00964  -0.0253  0.9731  1.0000  -0.7282   0.0000   0.0000   0.0000  -0.3965
  -1.000   0.0596   0.01994   0.00959  -0.0355  0.9442  1.0000  -0.4108   0.0000   0.0000   0.0000   0.8499
  -0.500   0.1441   0.02059   0.00980  -0.0420  0.9128  1.0000  -0.4687   0.0000   0.0000   0.0000   0.5415
   0.000   0.2112   0.02133   0.01025  -0.0444  0.8798  1.0000  -0.5278   0.0000   0.0000   0.0000   0.4597
   0.500   0.2643   0.02215   0.01086  -0.0439  0.8458  1.0000  -0.5847   0.0000   0.0000   0.0000   0.4149
   1.000   0.3121   0.02299   0.01156  -0.0422  0.8120  1.0000  -0.6451   0.0000   0.0000   0.0000   0.3833
   1.500   0.3577   0.02382   0.01230  -0.0398  0.7784  1.0000  -0.7115   0.0000   0.0000   0.0000   0.3590
   2.000   0.4026   0.02460   0.01305  -0.0371  0.7449  1.0000  -0.7858   0.0000   0.0000   0.0000   0.3397
   2.500   0.4482   0.02531   0.01375  -0.0344  0.7113  1.0000  -0.8688   0.0000   0.0000   0.0000   0.3239
   3.000   0.4938   0.02594   0.01446  -0.0315  0.6775  1.0000  -0.9604   0.0000   0.0000   0.0000   0.3105
   3.500   0.5398   0.02643   0.01502  -0.0284  0.6434  1.0000  -1.0649   0.0000   0.0000   0.0000   0.2990
   4.000   0.5864   0.02677   0.01542  -0.0251  0.6089  1.0000  -1.1859   0.0000   0.0000   0.0000   0.2887
   4.500   0.6319   0.02739   0.01625  -0.0223  0.5692  1.0000  -1.3111   0.0000   0.0000   0.0000   0.2809
   5.000   0.6790   0.02761   0.01657  -0.0189  0.5309  1.0000  -1.4630   0.0000   0.0000   0.0000   0.2730
   5.500   0.7250   0.02817   0.01726  -0.0159  0.4872  1.0000  -1.6267   0.0000   0.0000   0.0000   0.2667
   6.000   0.7709   0.02881   0.01807  -0.0130  0.4416  1.0000  -1.8104   0.0000   0.0000   0.0000   0.2611
   6.500   0.8158   0.02978   0.01911  -0.0102  0.3935  1.0000  -2.0270   0.0000   0.0000   0.0000   0.2563
   7.000   0.8590   0.03117   0.02064  -0.0078  0.3446  1.0000  -2.2967   0.0000   0.0000   0.0000   0.2522
   7.500   0.9003   0.03304   0.02260  -0.0056  0.2975  1.0000  -2.5770   0.0000   0.0000   0.0000   0.2488
   8.000   0.9403   0.03531   0.02493  -0.0035  0.2557  1.0000  -2.9571   0.0000   0.0000   0.0000   0.2458
   8.500   0.9765   0.03839   0.02827  -0.0018  0.2188  1.0000  -3.3763   0.0000   0.0000   0.0000   0.2433
   9.000   1.0094   0.04179   0.03199  -0.0000  0.1869  1.0000  -3.7911   0.0000   0.0000   0.0000   0.2408
   9.500   1.0414   0.04588   0.03631   0.0017  0.1623  1.0000  -4.1940   0.0000   0.0000   0.0000   0.2386
  10.000   1.0581   0.05146   0.04248   0.0031  0.1423  1.0000  -4.4707   0.0000   0.0000   0.0000   0.2367
  10.500   1.0642   0.05789   0.04941   0.0043  0.1276  1.0000  -4.6697   0.0000   0.0000   0.0000   0.2350
  11.000   1.0593   0.06446   0.05628   0.0052  0.1161  1.0000  -4.8114   0.0000   0.0000   0.0000   0.2335
  11.500   1.0049   0.07687   0.06911   0.0009  0.1156  1.0000  -4.5191   0.0000   0.0000   0.0000   0.2370
  12.000   0.9381   0.09578   0.08812  -0.0104  0.1176  1.0000  -4.0122   0.0000   0.0000   0.0000   0.2485
  12.500   0.8706   0.12091   0.11306  -0.0257  0.1198  1.0000  -3.3061   0.0000   0.0000   0.0000   0.2671
  13.000   0.8431   0.13700   0.12899  -0.0340  0.1166  1.0000  -3.0051   0.0000   0.0000   0.0000   0.2778
  13.500   0.8280   0.15085   0.14277  -0.0408  0.1153  1.0000  -2.7972   0.0000   0.0000   0.0000   0.2865
  14.000   0.8218   0.16294   0.15484  -0.0463  0.1147  1.0000  -2.6665   0.0000   0.0000   0.0000   0.2933
  14.500   0.8206   0.17309   0.16499  -0.0511  0.1096  1.0000  -2.5987   0.0000   0.0000   0.0000   0.2987
  15.000   0.8337   0.18138   0.17334  -0.0529  0.1024  1.0000  -2.6905   0.0000   0.0000   0.0000   0.2994


