xflr5 v6.62

 Calculated polar for: MH 45  9.85%

 1 1 Reynolds number fixed          Mach number fixed         

 xtrf =   1.000 (top)        1.000 (bottom)
 Mach =   0.000     Re =     1.000 e 6     Ncrit =   6.000

  alpha     CL        CD       CDp       Cm    Top Xtr Bot Xtr   Cpmin    Chinge    XCp    
 ------- -------- --------- --------- -------- ------- ------- -------- --------- ---------
  -5.000  -0.4782   0.01091   0.00480  -0.0024  0.7308  0.0045  -4.4777   0.0000   0.0000   0.0000   0.2405
  -4.500  -0.4233   0.01018   0.00392  -0.0021  0.7166  0.0048  -3.7771   0.0000   0.0000   0.0000   0.2410
  -4.000  -0.3677   0.00965   0.00326  -0.0018  0.7018  0.0055  -3.2092   0.0000   0.0000   0.0000   0.2411
  -3.500  -0.3118   0.00913   0.00260  -0.0015  0.6866  0.0063  -2.7214   0.0000   0.0000   0.0000   0.2413
  -3.000  -0.2560   0.00856   0.00201  -0.0012  0.6708  0.0196  -2.3411   0.0000   0.0000   0.0000   0.2415
  -2.500  -0.2012   0.00783   0.00156  -0.0010  0.6542  0.1011  -1.8746   0.0000   0.0000   0.0000   0.2411
  -2.000  -0.1464   0.00721   0.00128  -0.0009  0.6363  0.2052  -1.4108   0.0000   0.0000   0.0000   0.2399
  -1.500  -0.0911   0.00675   0.00110  -0.0008  0.6165  0.3034  -0.9760   0.0000   0.0000   0.0000   0.2368
  -1.000  -0.0350   0.00650   0.00097  -0.0007  0.5946  0.3726  -0.5781   0.0000   0.0000   0.0000   0.2225
  -0.500   0.0211   0.00631   0.00088  -0.0007  0.5707  0.4354  -0.4250   0.0000   0.0000   0.0000   0.2852
   0.000   0.0771   0.00616   0.00082  -0.0006  0.5436  0.5058  -0.4756   0.0000   0.0000   0.0000   0.2565
   0.500   0.1325   0.00600   0.00081  -0.0005  0.5137  0.5889  -0.5307   0.0000   0.0000   0.0000   0.2512
   1.000   0.1867   0.00581   0.00083  -0.0001  0.4818  0.6933  -0.5914   0.0000   0.0000   0.0000   0.2476
   1.500   0.2376   0.00552   0.00090   0.0012  0.4497  0.8333  -0.6577   0.0000   0.0000   0.0000   0.2419
   2.500   0.3880   0.00576   0.00117  -0.0069  0.3743  0.9967  -0.8648   0.0000   0.0000   0.0000   0.2645
   3.000   0.4488   0.00604   0.00130  -0.0081  0.3411  1.0000  -0.9735   0.0000   0.0000   0.0000   0.2643
   3.500   0.5033   0.00636   0.00149  -0.0079  0.3088  1.0000  -1.0909   0.0000   0.0000   0.0000   0.2616
   4.000   0.5576   0.00672   0.00171  -0.0077  0.2745  1.0000  -1.2279   0.0000   0.0000   0.0000   0.2593
   4.500   0.6116   0.00713   0.00199  -0.0075  0.2391  1.0000  -1.3769   0.0000   0.0000   0.0000   0.2573
   5.000   0.6654   0.00756   0.00230  -0.0072  0.2075  1.0000  -1.5439   0.0000   0.0000   0.0000   0.2556
   5.500   0.7188   0.00808   0.00269  -0.0070  0.1728  1.0000  -1.7386   0.0000   0.0000   0.0000   0.2540
   6.000   0.7720   0.00861   0.00311  -0.0068  0.1446  1.0000  -1.9604   0.0000   0.0000   0.0000   0.2526
   6.500   0.8248   0.00920   0.00359  -0.0065  0.1184  1.0000  -2.2451   0.0000   0.0000   0.0000   0.2512
   7.000   0.8775   0.00980   0.00413  -0.0063  0.0963  1.0000  -2.5897   0.0000   0.0000   0.0000   0.2499
   7.500   0.9288   0.01061   0.00479  -0.0060  0.0672  1.0000  -3.0433   0.0000   0.0000   0.0000   0.2487
   8.000   0.9797   0.01145   0.00550  -0.0057  0.0459  1.0000  -3.7398   0.0000   0.0000   0.0000   0.2475
   8.500   1.0304   0.01225   0.00628  -0.0054  0.0328  1.0000  -4.4825   0.0000   0.0000   0.0000   0.2462
   9.000   1.0800   0.01316   0.00715  -0.0050  0.0220  1.0000  -5.2705   0.0000   0.0000   0.0000   0.2450
   9.500   1.1288   0.01412   0.00810  -0.0046  0.0146  1.0000  -6.0975   0.0000   0.0000   0.0000   0.2437
  10.000   1.1755   0.01531   0.00929  -0.0040  0.0080  1.0000  -6.9476   0.0000   0.0000   0.0000   0.2424
  10.500   1.2202   0.01664   0.01064  -0.0033  0.0029  1.0000  -7.7997   0.0000   0.0000   0.0000   0.2409
  11.000   1.2620   0.01823   0.01232  -0.0024  0.0008  1.0000  -8.5997   0.0000   0.0000   0.0000   0.2393
  11.500   1.3033   0.01964   0.01388  -0.0014  0.0006  1.0000  -9.4551   0.0000   0.0000   0.0000   0.2377
  12.000   1.3406   0.02128   0.01568  -0.0002  0.0006  1.0000  -10.3037   0.0000   0.0000   0.0000   0.2360
  12.500   1.3720   0.02322   0.01783   0.0013  0.0005  1.0000  -11.1156   0.0000   0.0000   0.0000   0.2340
  13.000   1.3896   0.02569   0.02050   0.0036  0.0005  1.0000  -11.7983   0.0000   0.0000   0.0000   0.2315
  13.500   1.4014   0.02907   0.02409   0.0048  0.0005  1.0000  -12.4166   0.0000   0.0000   0.0000   0.2298
  14.000   1.4079   0.03344   0.02869   0.0049  0.0005  1.0000  -12.9696   0.0000   0.0000   0.0000   0.2287
  14.500   1.4074   0.03906   0.03454   0.0040  0.0004  1.0000  -13.4258   0.0000   0.0000   0.0000   0.2283
  15.000   1.3984   0.04625   0.04199   0.0018  0.0004  1.0000  -13.7547   0.0000   0.0000   0.0000   0.2288


