xflr5 v6.62

 Calculated polar for: MH 45  9.85%

 1 1 Reynolds number fixed          Mach number fixed         

 xtrf =   1.000 (top)        1.000 (bottom)
 Mach =   0.000     Re =     0.100 e 6     Ncrit =   6.000

  alpha     CL        CD       CDp       Cm    Top Xtr Bot Xtr   Cpmin    Chinge    XCp    
 ------- -------- --------- --------- -------- ------- ------- -------- --------- ---------
  -5.000  -0.4087   0.02110   0.01259  -0.0236  0.9788  0.0270  -3.2034   0.0000   0.0000   0.0000   0.1874
  -4.500  -0.3420   0.01859   0.00982  -0.0262  0.9497  0.0393  -2.9477   0.0000   0.0000   0.0000   0.1685
  -4.000  -0.2895   0.01562   0.00753  -0.0260  0.9223  0.1690  -2.8220   0.0000   0.0000   0.0000   0.1553
  -3.500  -0.2416   0.01465   0.00710  -0.0245  0.8973  0.3413  -2.4167   0.0000   0.0000   0.0000   0.1438
  -3.000  -0.1955   0.01404   0.00674  -0.0221  0.8735  0.4596  -1.9922   0.0000   0.0000   0.0000   0.1321
  -2.500  -0.1490   0.01352   0.00641  -0.0193  0.8519  0.5687  -1.5757   0.0000   0.0000   0.0000   0.1151
  -2.000  -0.1021   0.01301   0.00619  -0.0161  0.8316  0.7000  -1.1763   0.0000   0.0000   0.0000   0.0868
  -1.500  -0.0418   0.01266   0.00605  -0.0147  0.8108  0.8599  -0.7506   0.0000   0.0000   0.0000  -0.1125
  -1.000   0.0517   0.01258   0.00570  -0.0209  0.7901  0.9748  -0.4180   0.0000   0.0000   0.0000   0.6588
  -0.500   0.1147   0.01259   0.00533  -0.0223  0.7688  1.0000  -0.4704   0.0000   0.0000   0.0000   0.4449
   0.000   0.1637   0.01270   0.00519  -0.0210  0.7445  1.0000  -0.5196   0.0000   0.0000   0.0000   0.3776
   0.500   0.2120   0.01281   0.00504  -0.0192  0.7219  1.0000  -0.5737   0.0000   0.0000   0.0000   0.3390
   1.000   0.2622   0.01295   0.00502  -0.0179  0.6962  1.0000  -0.6352   0.0000   0.0000   0.0000   0.3161
   1.500   0.3120   0.01307   0.00496  -0.0162  0.6713  1.0000  -0.7059   0.0000   0.0000   0.0000   0.2995
   2.000   0.3630   0.01322   0.00501  -0.0149  0.6429  1.0000  -0.7864   0.0000   0.0000   0.0000   0.2882
   2.500   0.4143   0.01339   0.00508  -0.0136  0.6125  1.0000  -0.8764   0.0000   0.0000   0.0000   0.2797
   3.000   0.4658   0.01361   0.00524  -0.0124  0.5800  1.0000  -0.9762   0.0000   0.0000   0.0000   0.2731
   3.500   0.5174   0.01388   0.00540  -0.0112  0.5454  1.0000  -1.0897   0.0000   0.0000   0.0000   0.2677
   4.000   0.5693   0.01424   0.00571  -0.0102  0.5065  1.0000  -1.2208   0.0000   0.0000   0.0000   0.2637
   4.500   0.6206   0.01471   0.00612  -0.0092  0.4667  1.0000  -1.3626   0.0000   0.0000   0.0000   0.2602
   5.000   0.6719   0.01528   0.00666  -0.0084  0.4241  1.0000  -1.5232   0.0000   0.0000   0.0000   0.2574
   5.500   0.7226   0.01599   0.00736  -0.0076  0.3807  1.0000  -1.7060   0.0000   0.0000   0.0000   0.2549
   6.000   0.7724   0.01683   0.00815  -0.0068  0.3356  1.0000  -1.9105   0.0000   0.0000   0.0000   0.2527
   6.500   0.8211   0.01783   0.00912  -0.0061  0.2889  1.0000  -2.1614   0.0000   0.0000   0.0000   0.2508
   7.000   0.8684   0.01905   0.01035  -0.0054  0.2427  1.0000  -2.4736   0.0000   0.0000   0.0000   0.2490
   7.500   0.9142   0.02049   0.01182  -0.0046  0.2009  1.0000  -2.8019   0.0000   0.0000   0.0000   0.2472
   8.000   0.9574   0.02222   0.01352  -0.0037  0.1661  1.0000  -3.3019   0.0000   0.0000   0.0000   0.2455
   8.500   0.9989   0.02413   0.01556  -0.0026  0.1368  1.0000  -3.8167   0.0000   0.0000   0.0000   0.2436
   9.000   1.0377   0.02633   0.01788  -0.0014  0.1137  1.0000  -4.3464   0.0000   0.0000   0.0000   0.2417
   9.500   1.0733   0.02871   0.02043  -0.0000  0.0937  1.0000  -4.9397   0.0000   0.0000   0.0000   0.2397
  10.000   1.1042   0.03141   0.02331   0.0015  0.0774  1.0000  -5.5158   0.0000   0.0000   0.0000   0.2376
  10.500   1.1301   0.03453   0.02669   0.0033  0.0645  1.0000  -6.0524   0.0000   0.0000   0.0000   0.2354
  11.000   1.1472   0.03812   0.03064   0.0053  0.0541  1.0000  -6.5232   0.0000   0.0000   0.0000   0.2330
  11.500   1.1564   0.04258   0.03520   0.0073  0.0477  1.0000  -6.9163   0.0000   0.0000   0.0000   0.2305
  12.000   1.1581   0.04788   0.04109   0.0083  0.0425  1.0000  -7.1887   0.0000   0.0000   0.0000   0.2289
  12.500   1.1542   0.05346   0.04688   0.0076  0.0379  1.0000  -7.4735   0.0000   0.0000   0.0000   0.2287
  13.000   1.1414   0.06146   0.05522   0.0062  0.0353  1.0000  -7.5791   0.0000   0.0000   0.0000   0.2290
  13.500   1.1160   0.07180   0.06610   0.0019  0.0341  1.0000  -7.4980   0.0000   0.0000   0.0000   0.2319
  14.000   1.0798   0.08500   0.07975  -0.0052  0.0337  1.0000  -7.2586   0.0000   0.0000   0.0000   0.2376
  14.500   1.0322   0.10208   0.09719  -0.0157  0.0342  1.0000  -6.8119   0.0000   0.0000   0.0000   0.2474
  15.000   0.9730   0.12469   0.12000  -0.0294  0.0355  1.0000  -6.0506   0.0000   0.0000   0.0000   0.2623


