xflr5 v6.62

 Calculated polar for: MH 45  9.85%

 1 1 Reynolds number fixed          Mach number fixed         

 xtrf =   1.000 (top)        1.000 (bottom)
 Mach =   0.000     Re =     0.130 e 6     Ncrit =   6.000

  alpha     CL        CD       CDp       Cm    Top Xtr Bot Xtr   Cpmin    Chinge    XCp    
 ------- -------- --------- --------- -------- ------- ------- -------- --------- ---------
  -5.000  -0.3957   0.01954   0.01139  -0.0245  0.9301  0.0217  -3.2215   0.0000   0.0000   0.0000   0.1832
  -4.500  -0.3497   0.01733   0.00889  -0.0223  0.9025  0.0260  -3.0304   0.0000   0.0000   0.0000   0.1814
  -4.000  -0.3046   0.01556   0.00703  -0.0198  0.8798  0.0565  -2.8518   0.0000   0.0000   0.0000   0.1803
  -3.500  -0.2606   0.01368   0.00615  -0.0180  0.8580  0.2647  -2.5232   0.0000   0.0000   0.0000   0.1762
  -3.000  -0.2143   0.01294   0.00579  -0.0159  0.8379  0.3943  -2.0885   0.0000   0.0000   0.0000   0.1710
  -2.500  -0.1667   0.01237   0.00540  -0.0137  0.8189  0.4981  -1.6619   0.0000   0.0000   0.0000   0.1630
  -2.000  -0.1190   0.01183   0.00510  -0.0112  0.8004  0.6115  -1.2521   0.0000   0.0000   0.0000   0.1505
  -1.500  -0.0688   0.01128   0.00489  -0.0088  0.7809  0.7537  -0.8544   0.0000   0.0000   0.0000   0.1162
  -1.000   0.0054   0.01100   0.00473  -0.0106  0.7614  0.9122  -0.4484   0.0000   0.0000   0.0000   2.2814
  -0.500   0.0979   0.01094   0.00437  -0.0175  0.7407  0.9980  -0.4636   0.0000   0.0000   0.0000   0.4291
   0.000   0.1493   0.01098   0.00413  -0.0166  0.7197  1.0000  -0.5139   0.0000   0.0000   0.0000   0.3600
   0.500   0.2007   0.01105   0.00400  -0.0156  0.6959  1.0000  -0.5694   0.0000   0.0000   0.0000   0.3260
   1.000   0.2516   0.01114   0.00387  -0.0143  0.6728  1.0000  -0.6310   0.0000   0.0000   0.0000   0.3046
   1.500   0.3038   0.01126   0.00386  -0.0134  0.6455  1.0000  -0.7028   0.0000   0.0000   0.0000   0.2914
   2.000   0.3559   0.01141   0.00388  -0.0123  0.6170  1.0000  -0.7843   0.0000   0.0000   0.0000   0.2818
   2.500   0.4083   0.01159   0.00394  -0.0114  0.5861  1.0000  -0.8751   0.0000   0.0000   0.0000   0.2747
   3.000   0.4608   0.01183   0.00406  -0.0105  0.5523  1.0000  -0.9758   0.0000   0.0000   0.0000   0.2692
   3.500   0.5133   0.01214   0.00428  -0.0097  0.5160  1.0000  -1.0905   0.0000   0.0000   0.0000   0.2649
   4.000   0.5657   0.01254   0.00457  -0.0089  0.4774  1.0000  -1.2229   0.0000   0.0000   0.0000   0.2614
   4.500   0.6180   0.01303   0.00500  -0.0083  0.4369  1.0000  -1.3664   0.0000   0.0000   0.0000   0.2586
   5.000   0.6700   0.01361   0.00551  -0.0077  0.3956  1.0000  -1.5287   0.0000   0.0000   0.0000   0.2562
   5.500   0.7213   0.01430   0.00616  -0.0071  0.3534  1.0000  -1.7141   0.0000   0.0000   0.0000   0.2542
   6.000   0.7721   0.01509   0.00692  -0.0066  0.3086  1.0000  -1.9223   0.0000   0.0000   0.0000   0.2524
   6.500   0.8218   0.01603   0.00782  -0.0061  0.2626  1.0000  -2.1816   0.0000   0.0000   0.0000   0.2507
   7.000   0.8703   0.01716   0.00895  -0.0055  0.2189  1.0000  -2.5005   0.0000   0.0000   0.0000   0.2491
   7.500   0.9167   0.01854   0.01024  -0.0049  0.1797  1.0000  -2.8430   0.0000   0.0000   0.0000   0.2475
   8.000   0.9617   0.02007   0.01178  -0.0041  0.1478  1.0000  -3.3603   0.0000   0.0000   0.0000   0.2459
   8.500   1.0049   0.02175   0.01359  -0.0033  0.1211  1.0000  -3.8971   0.0000   0.0000   0.0000   0.2442
   9.000   1.0456   0.02364   0.01560  -0.0022  0.0991  1.0000  -4.5178   0.0000   0.0000   0.0000   0.2425
   9.500   1.0834   0.02574   0.01787  -0.0010  0.0811  1.0000  -5.1492   0.0000   0.0000   0.0000   0.2406
  10.000   1.1168   0.02810   0.02041   0.0004  0.0659  1.0000  -5.7706   0.0000   0.0000   0.0000   0.2386
  10.500   1.1445   0.03082   0.02339   0.0020  0.0536  1.0000  -6.3594   0.0000   0.0000   0.0000   0.2365
  11.000   1.1613   0.03434   0.02710   0.0042  0.0459  1.0000  -6.8448   0.0000   0.0000   0.0000   0.2339
  11.500   1.1726   0.03799   0.03106   0.0059  0.0393  1.0000  -7.2875   0.0000   0.0000   0.0000   0.2317
  12.000   1.1754   0.04296   0.03626   0.0067  0.0344  1.0000  -7.6353   0.0000   0.0000   0.0000   0.2302
  12.500   1.1763   0.04864   0.04237   0.0068  0.0309  1.0000  -7.9181   0.0000   0.0000   0.0000   0.2293
  13.000   1.1706   0.05516   0.04915   0.0052  0.0279  1.0000  -8.1643   0.0000   0.0000   0.0000   0.2298
  13.500   1.1542   0.06369   0.05790   0.0026  0.0254  1.0000  -8.2605   0.0000   0.0000   0.0000   0.2311
  14.000   1.1329   0.07393   0.06863  -0.0025  0.0240  1.0000  -8.2425   0.0000   0.0000   0.0000   0.2347
  14.500   1.1029   0.08662   0.08174  -0.0092  0.0232  1.0000  -8.0658   0.0000   0.0000   0.0000   0.2400
  15.000   1.0647   0.10237   0.09786  -0.0182  0.0232  1.0000  -7.7182   0.0000   0.0000   0.0000   0.2481


