xflr5 v6.62

 Calculated polar for: MH 45  9.85%

 1 1 Reynolds number fixed          Mach number fixed         

 xtrf =   1.000 (top)        1.000 (bottom)
 Mach =   0.000     Re =     0.010 e 6     Ncrit =   6.000

  alpha     CL        CD       CDp       Cm    Top Xtr Bot Xtr   Cpmin    Chinge    XCp    
 ------- -------- --------- --------- -------- ------- ------- -------- --------- ---------
  -5.000  -0.4360   0.05899   0.04540   0.0095  1.0000  0.5502  -2.4650   0.0000   0.0000   0.0000   0.2679
  -4.500  -0.1785   0.04588   0.02912  -0.0121  1.0000  0.9599  -1.6933   0.0000   0.0000   0.0000   0.1742
  -4.000  -0.1262   0.04059   0.02296  -0.0248  1.0000  1.0000  -1.4724   0.0000   0.0000   0.0000   0.0434
  -3.500  -0.1176   0.03795   0.02001  -0.0267  1.0000  1.0000  -1.3541   0.0000   0.0000   0.0000   0.0141
  -3.000  -0.1090   0.03623   0.01785  -0.0262  1.0000  1.0000  -1.2095   0.0000   0.0000   0.0000   0.0011
  -2.500  -0.0964   0.03538   0.01633  -0.0241  1.0000  1.0000  -1.0326   0.0000   0.0000   0.0000  -0.0084
  -2.000  -0.0809   0.03511   0.01529  -0.0211  1.0000  1.0000  -0.8384   0.0000   0.0000   0.0000  -0.0187
  -1.500  -0.0626   0.03517   0.01450  -0.0178  1.0000  1.0000  -0.6554   0.0000   0.0000   0.0000  -0.0426
  -1.000  -0.0402   0.03547   0.01407  -0.0150  1.0000  1.0000  -0.5183   0.0000   0.0000   0.0000  -0.1315
  -0.500  -0.0146   0.03598   0.01393  -0.0127  1.0000  1.0000  -0.4331   0.0000   0.0000   0.0000  -0.6346
   0.000   0.0133   0.03669   0.01407  -0.0109  1.0000  1.0000  -0.4014   0.0000   0.0000   0.0000   1.0719
   0.500   0.0425   0.03761   0.01445  -0.0095  1.0000  1.0000  -0.4291   0.0000   0.0000   0.0000   0.4719
   1.000   0.0724   0.03874   0.01520  -0.0086  1.0000  1.0000  -0.4590   0.0000   0.0000   0.0000   0.3653
   1.500   0.1022   0.04010   0.01629  -0.0081  1.0000  1.0000  -0.4909   0.0000   0.0000   0.0000   0.3246
   2.000   0.1318   0.04173   0.01767  -0.0079  1.0000  1.0000  -0.5247   0.0000   0.0000   0.0000   0.3051
   2.500   0.1608   0.04363   0.01945  -0.0080  1.0000  1.0000  -0.5600   0.0000   0.0000   0.0000   0.2951
   3.000   0.1889   0.04582   0.02160  -0.0086  1.0000  1.0000  -0.5972   0.0000   0.0000   0.0000   0.2901
   3.500   0.2161   0.04834   0.02417  -0.0094  1.0000  1.0000  -0.6354   0.0000   0.0000   0.0000   0.2880
   4.000   0.2421   0.05119   0.02707  -0.0106  1.0000  1.0000  -0.6721   0.0000   0.0000   0.0000   0.2878
   4.500   0.2671   0.05438   0.03038  -0.0120  1.0000  1.0000  -0.7113   0.0000   0.0000   0.0000   0.2888
   5.000   0.2915   0.05796   0.03412  -0.0138  0.9996  1.0000  -0.7479   0.0000   0.0000   0.0000   0.2910
   5.500   0.3817   0.06589   0.04270  -0.0288  0.9397  1.0000  -0.8558   0.0000   0.0000   0.0000   0.3193
   6.000   0.4483   0.07321   0.05057  -0.0382  0.8831  1.0000  -0.9517   0.0000   0.0000   0.0000   0.3288
   6.500   0.5000   0.08027   0.05813  -0.0441  0.8299  1.0000  -1.0311   0.0000   0.0000   0.0000   0.3316
   7.000   0.5401   0.08716   0.06563  -0.0478  0.7811  1.0000  -1.1060   0.0000   0.0000   0.0000   0.3316
   7.500   0.5758   0.09425   0.07319  -0.0505  0.7342  1.0000  -1.1714   0.0000   0.0000   0.0000   0.3306
   8.000   0.6034   0.10125   0.08062  -0.0522  0.6922  1.0000  -1.2354   0.0000   0.0000   0.0000   0.3290
   8.500   0.6280   0.10851   0.08826  -0.0535  0.6540  1.0000  -1.2882   0.0000   0.0000   0.0000   0.3274
   9.000   0.6467   0.11579   0.09601  -0.0545  0.6216  1.0000  -1.3402   0.0000   0.0000   0.0000   0.3261
   9.500   0.6674   0.12368   0.10425  -0.0559  0.5925  1.0000  -1.3907   0.0000   0.0000   0.0000   0.3253
  10.000   0.6739   0.13059   0.11139  -0.0564  0.5698  1.0000  -1.4205   0.0000   0.0000   0.0000   0.3249
  10.500   0.6847   0.13846   0.11952  -0.0582  0.5560  1.0000  -1.4500   0.0000   0.0000   0.0000   0.3257
  11.000   0.6950   0.14614   0.12745  -0.0596  0.5388  1.0000  -1.4889   0.0000   0.0000   0.0000   0.3261
  11.500   0.7037   0.15470   0.13623  -0.0625  0.5430  1.0000  -1.5089   0.0000   0.0000   0.0000   0.3288
  12.000   0.7096   0.16233   0.14405  -0.0648  0.5416  1.0000  -1.5204   0.0000   0.0000   0.0000   0.3308
  12.500   0.6617   0.16595   0.14751  -0.0740  0.7866  1.0000  -1.3550   0.0000   0.0000   0.0000   0.3498
  13.000   0.6772   0.17433   0.15612  -0.0771  0.7846  1.0000  -1.3823   0.0000   0.0000   0.0000   0.3514
  13.500   0.6946   0.18192   0.16410  -0.0791  0.7489  1.0000  -1.4263   0.0000   0.0000   0.0000   0.3510
  14.000   0.7164   0.19147   0.17394  -0.0821  0.7225  1.0000  -1.4754   0.0000   0.0000   0.0000   0.3514
  14.500   0.7324   0.19936   0.18203  -0.0845  0.7020  1.0000  -1.5443   0.0000   0.0000   0.0000   0.3516
  15.000   0.7511   0.20739   0.19028  -0.0863  0.6631  1.0000  -1.6273   0.0000   0.0000   0.0000   0.3507


