xflr5 v6.62

 Calculated polar for: MH 45  9.85%

 1 1 Reynolds number fixed          Mach number fixed         

 xtrf =   1.000 (top)        1.000 (bottom)
 Mach =   0.000     Re =     0.200 e 6     Ncrit =   6.000

  alpha     CL        CD       CDp       Cm    Top Xtr Bot Xtr   Cpmin    Chinge    XCp    
 ------- -------- --------- --------- -------- ------- ------- -------- --------- ---------
  -5.000  -0.4300   0.01813   0.01053  -0.0147  0.8633  0.0148  -3.4465   0.0000   0.0000   0.0000   0.2112
  -4.500  -0.3829   0.01589   0.00804  -0.0127  0.8441  0.0162  -3.1715   0.0000   0.0000   0.0000   0.2123
  -4.000  -0.3328   0.01447   0.00633  -0.0113  0.8261  0.0214  -2.8976   0.0000   0.0000   0.0000   0.2118
  -3.500  -0.2845   0.01242   0.00484  -0.0100  0.8089  0.1450  -2.6520   0.0000   0.0000   0.0000   0.2105
  -3.000  -0.2338   0.01148   0.00436  -0.0092  0.7918  0.2837  -2.2014   0.0000   0.0000   0.0000   0.2066
  -2.500  -0.1828   0.01079   0.00398  -0.0081  0.7748  0.4044  -1.7497   0.0000   0.0000   0.0000   0.2012
  -2.000  -0.1310   0.01026   0.00366  -0.0070  0.7575  0.5019  -1.3153   0.0000   0.0000   0.0000   0.1923
  -1.500  -0.0802   0.00974   0.00338  -0.0054  0.7401  0.6102  -0.9084   0.0000   0.0000   0.0000   0.1769
  -1.000  -0.0310   0.00919   0.00321  -0.0032  0.7224  0.7451  -0.5450   0.0000   0.0000   0.0000   0.1383
  -0.500   0.0376   0.00884   0.00312  -0.0044  0.7033  0.9066  -0.4328   0.0000   0.0000   0.0000   0.3681
   0.000   0.1282   0.00882   0.00293  -0.0111  0.6806  0.9901  -0.5039   0.0000   0.0000   0.0000   0.3356
   0.500   0.1885   0.00887   0.00274  -0.0119  0.6580  1.0000  -0.5646   0.0000   0.0000   0.0000   0.3116
   1.000   0.2417   0.00895   0.00265  -0.0113  0.6326  1.0000  -0.6273   0.0000   0.0000   0.0000   0.2945
   1.500   0.2948   0.00908   0.00261  -0.0106  0.6058  1.0000  -0.6993   0.0000   0.0000   0.0000   0.2833
   2.000   0.3481   0.00925   0.00262  -0.0099  0.5759  1.0000  -0.7816   0.0000   0.0000   0.0000   0.2755
   2.500   0.4016   0.00947   0.00270  -0.0093  0.5428  1.0000  -0.8733   0.0000   0.0000   0.0000   0.2699
   3.000   0.4551   0.00975   0.00284  -0.0088  0.5068  1.0000  -0.9750   0.0000   0.0000   0.0000   0.2657
   3.500   0.5085   0.01010   0.00308  -0.0083  0.4690  1.0000  -1.0907   0.0000   0.0000   0.0000   0.2623
   4.000   0.5618   0.01053   0.00337  -0.0079  0.4304  1.0000  -1.2246   0.0000   0.0000   0.0000   0.2596
   4.500   0.6149   0.01101   0.00378  -0.0075  0.3911  1.0000  -1.3701   0.0000   0.0000   0.0000   0.2574
   5.000   0.6676   0.01158   0.00425  -0.0071  0.3516  1.0000  -1.5343   0.0000   0.0000   0.0000   0.2555
   5.500   0.7200   0.01221   0.00484  -0.0068  0.3100  1.0000  -1.7234   0.0000   0.0000   0.0000   0.2538
   6.000   0.7716   0.01295   0.00550  -0.0065  0.2667  1.0000  -1.9358   0.0000   0.0000   0.0000   0.2522
   6.500   0.8224   0.01383   0.00629  -0.0062  0.2248  1.0000  -2.2044   0.0000   0.0000   0.0000   0.2508
   7.000   0.8721   0.01484   0.00727  -0.0058  0.1838  1.0000  -2.5317   0.0000   0.0000   0.0000   0.2494
   7.500   0.9206   0.01600   0.00837  -0.0054  0.1502  1.0000  -2.8909   0.0000   0.0000   0.0000   0.2480
   8.000   0.9681   0.01724   0.00962  -0.0048  0.1224  1.0000  -3.4329   0.0000   0.0000   0.0000   0.2466
   8.500   1.0139   0.01861   0.01108  -0.0042  0.0994  1.0000  -4.0812   0.0000   0.0000   0.0000   0.2451
   9.000   1.0581   0.02009   0.01266  -0.0034  0.0804  1.0000  -4.7638   0.0000   0.0000   0.0000   0.2435
   9.500   1.0995   0.02178   0.01442  -0.0025  0.0636  1.0000  -5.4629   0.0000   0.0000   0.0000   0.2419
  10.000   1.1377   0.02369   0.01647  -0.0014  0.0506  1.0000  -6.1613   0.0000   0.0000   0.0000   0.2402
  10.500   1.1712   0.02593   0.01897   0.0000  0.0409  1.0000  -6.8354   0.0000   0.0000   0.0000   0.2382
  11.000   1.1960   0.02870   0.02193   0.0018  0.0332  1.0000  -7.4438   0.0000   0.0000   0.0000   0.2360
  11.500   1.2106   0.03183   0.02529   0.0037  0.0281  1.0000  -7.9642   0.0000   0.0000   0.0000   0.2336
  12.000   1.2174   0.03604   0.02974   0.0047  0.0238  1.0000  -8.3990   0.0000   0.0000   0.0000   0.2320
  12.500   1.2295   0.04002   0.03390   0.0042  0.0188  1.0000  -8.9495   0.0000   0.0000   0.0000   0.2316
  13.000   1.2332   0.04536   0.03951   0.0031  0.0151  1.0000  -9.3761   0.0000   0.0000   0.0000   0.2316
  13.500   1.2313   0.05186   0.04622   0.0007  0.0122  1.0000  -9.7467   0.0000   0.0000   0.0000   0.2326
  14.000   1.2125   0.06130   0.05599  -0.0034  0.0109  1.0000  -9.8318   0.0000   0.0000   0.0000   0.2350
  14.500   1.1925   0.07168   0.06672  -0.0083  0.0100  1.0000  -9.8610   0.0000   0.0000   0.0000   0.2382
  15.000   1.1652   0.08414   0.07951  -0.0146  0.0094  1.0000  -9.7527   0.0000   0.0000   0.0000   0.2429


