xflr5 v6.62

 Calculated polar for: MH 45  9.85%

 1 1 Reynolds number fixed          Mach number fixed         

 xtrf =   1.000 (top)        1.000 (bottom)
 Mach =   0.000     Re =     0.300 e 6     Ncrit =   6.000

  alpha     CL        CD       CDp       Cm    Top Xtr Bot Xtr   Cpmin    Chinge    XCp    
 ------- -------- --------- --------- -------- ------- ------- -------- --------- ---------
  -5.000  -0.4520   0.01584   0.00869  -0.0089  0.8199  0.0109  -3.7597   0.0000   0.0000   0.0000   0.2257
  -4.500  -0.4010   0.01424   0.00687  -0.0078  0.8038  0.0117  -3.2986   0.0000   0.0000   0.0000   0.2262
  -4.000  -0.3482   0.01305   0.00541  -0.0069  0.7881  0.0137  -2.9573   0.0000   0.0000   0.0000   0.2261
  -3.500  -0.2950   0.01182   0.00406  -0.0059  0.7725  0.0355  -2.7034   0.0000   0.0000   0.0000   0.2257
  -3.000  -0.2444   0.01032   0.00337  -0.0055  0.7567  0.2152  -2.2677   0.0000   0.0000   0.0000   0.2235
  -2.500  -0.1908   0.00970   0.00298  -0.0050  0.7405  0.3132  -1.8004   0.0000   0.0000   0.0000   0.2196
  -2.000  -0.1375   0.00913   0.00269  -0.0044  0.7240  0.4211  -1.3525   0.0000   0.0000   0.0000   0.2134
  -1.500  -0.0838   0.00870   0.00243  -0.0038  0.7070  0.5103  -0.9304   0.0000   0.0000   0.0000   0.2002
  -1.000  -0.0311   0.00826   0.00225  -0.0028  0.6893  0.6132  -0.5532   0.0000   0.0000   0.0000   0.1525
  -0.500   0.0195   0.00775   0.00214  -0.0012  0.6702  0.7426  -0.4235   0.0000   0.0000   0.0000   0.3130
   0.000   0.0806   0.00735   0.00210  -0.0011  0.6490  0.9039  -0.4775   0.0000   0.0000   0.0000   0.2627
   1.000   0.2360   0.00749   0.00192  -0.0099  0.5964  1.0000  -0.6248   0.0000   0.0000   0.0000   0.2894
   1.500   0.2901   0.00764   0.00190  -0.0094  0.5672  1.0000  -0.6972   0.0000   0.0000   0.0000   0.2797
   2.000   0.3441   0.00783   0.00193  -0.0090  0.5349  1.0000  -0.7801   0.0000   0.0000   0.0000   0.2730
   2.500   0.3980   0.00809   0.00202  -0.0085  0.4999  1.0000  -0.8723   0.0000   0.0000   0.0000   0.2681
   3.000   0.4520   0.00840   0.00217  -0.0082  0.4633  1.0000  -0.9743   0.0000   0.0000   0.0000   0.2644
   3.500   0.5059   0.00876   0.00241  -0.0078  0.4254  1.0000  -1.0907   0.0000   0.0000   0.0000   0.2615
   4.000   0.5596   0.00918   0.00269  -0.0076  0.3881  1.0000  -1.2257   0.0000   0.0000   0.0000   0.2591
   4.500   0.6132   0.00965   0.00307  -0.0073  0.3507  1.0000  -1.3724   0.0000   0.0000   0.0000   0.2571
   5.000   0.6664   0.01017   0.00349  -0.0071  0.3119  1.0000  -1.5379   0.0000   0.0000   0.0000   0.2553
   5.500   0.7192   0.01078   0.00402  -0.0068  0.2715  1.0000  -1.7291   0.0000   0.0000   0.0000   0.2538
   6.000   0.7715   0.01147   0.00461  -0.0066  0.2313  1.0000  -1.9447   0.0000   0.0000   0.0000   0.2523
   6.500   0.8230   0.01228   0.00531  -0.0064  0.1910  1.0000  -2.2195   0.0000   0.0000   0.0000   0.2510
   7.000   0.8738   0.01316   0.00615  -0.0061  0.1569  1.0000  -2.5531   0.0000   0.0000   0.0000   0.2497
   7.500   0.9238   0.01413   0.00708  -0.0057  0.1277  1.0000  -2.9237   0.0000   0.0000   0.0000   0.2483
   8.000   0.9725   0.01523   0.00813  -0.0053  0.1029  1.0000  -3.5372   0.0000   0.0000   0.0000   0.2470
   8.500   1.0208   0.01631   0.00930  -0.0048  0.0834  1.0000  -4.2252   0.0000   0.0000   0.0000   0.2456
   9.000   1.0672   0.01756   0.01057  -0.0042  0.0652  1.0000  -4.9493   0.0000   0.0000   0.0000   0.2442
   9.500   1.1119   0.01893   0.01202  -0.0035  0.0519  1.0000  -5.6979   0.0000   0.0000   0.0000   0.2428
  10.000   1.1542   0.02046   0.01364  -0.0026  0.0397  1.0000  -6.4638   0.0000   0.0000   0.0000   0.2412
  10.500   1.1934   0.02218   0.01543  -0.0017  0.0281  1.0000  -7.2474   0.0000   0.0000   0.0000   0.2396
  11.000   1.2290   0.02407   0.01745  -0.0005  0.0206  1.0000  -8.0198   0.0000   0.0000   0.0000   0.2379
  11.500   1.2583   0.02631   0.01984   0.0009  0.0155  1.0000  -8.7503   0.0000   0.0000   0.0000   0.2359
  12.000   1.2755   0.02911   0.02277   0.0028  0.0115  1.0000  -9.3729   0.0000   0.0000   0.0000   0.2337
  12.500   1.2897   0.03243   0.02634   0.0038  0.0092  1.0000  -9.9478   0.0000   0.0000   0.0000   0.2321
  13.000   1.2931   0.03728   0.03141   0.0038  0.0068  1.0000  -10.3745   0.0000   0.0000   0.0000   0.2311
  13.500   1.2927   0.04304   0.03746   0.0028  0.0049  1.0000  -10.7203   0.0000   0.0000   0.0000   0.2310
  14.000   1.2767   0.05140   0.04609  -0.0001  0.0039  1.0000  -10.8481   0.0000   0.0000   0.0000   0.2322
  14.500   1.2586   0.06086   0.05589  -0.0041  0.0035  1.0000  -10.9270   0.0000   0.0000   0.0000   0.2345
  15.000   1.2324   0.07238   0.06774  -0.0098  0.0033  1.0000  -10.8750   0.0000   0.0000   0.0000   0.2381


