xflr5 v6.62

 Calculated polar for: MH 45  9.85%

 1 1 Reynolds number fixed          Mach number fixed         

 xtrf =   1.000 (top)        1.000 (bottom)
 Mach =   0.000     Re =     0.080 e 6     Ncrit =   6.000

  alpha     CL        CD       CDp       Cm    Top Xtr Bot Xtr   Cpmin    Chinge    XCp    
 ------- -------- --------- --------- -------- ------- ------- -------- --------- ---------
  -5.000  -0.4217   0.02326   0.01425  -0.0213  1.0000  0.0337  -3.1834   0.0000   0.0000   0.0000   0.1948
  -4.500  -0.3709   0.02065   0.01148  -0.0216  0.9868  0.0459  -2.9906   0.0000   0.0000   0.0000   0.1873
  -4.000  -0.3030   0.01683   0.00851  -0.0252  0.9614  0.1907  -2.8460   0.0000   0.0000   0.0000   0.1622
  -3.500  -0.2397   0.01573   0.00806  -0.0273  0.9355  0.3935  -2.3818   0.0000   0.0000   0.0000   0.1315
  -3.000  -0.1825   0.01511   0.00760  -0.0269  0.9112  0.5138  -1.9190   0.0000   0.0000   0.0000   0.0973
  -2.500  -0.1329   0.01460   0.00733  -0.0245  0.8862  0.6374  -1.4981   0.0000   0.0000   0.0000   0.0600
  -2.000  -0.0822   0.01421   0.00722  -0.0211  0.8644  0.7864  -1.0901   0.0000   0.0000   0.0000  -0.0140
  -1.500   0.0042   0.01409   0.00695  -0.0248  0.8428  0.9325  -0.5897   0.0000   0.0000   0.0000   6.3239
  -1.000   0.0903   0.01405   0.00649  -0.0305  0.8198  1.0000  -0.4362   0.0000   0.0000   0.0000   0.5900
  -0.500   0.1347   0.01423   0.00632  -0.0285  0.7942  1.0000  -0.4787   0.0000   0.0000   0.0000   0.4617
   0.000   0.1793   0.01442   0.00622  -0.0260  0.7702  1.0000  -0.5259   0.0000   0.0000   0.0000   0.3943
   0.500   0.2266   0.01463   0.00622  -0.0242  0.7442  1.0000  -0.5793   0.0000   0.0000   0.0000   0.3552
   1.000   0.2735   0.01481   0.00618  -0.0218  0.7200  1.0000  -0.6396   0.0000   0.0000   0.0000   0.3279
   1.500   0.3224   0.01501   0.00626  -0.0201  0.6924  1.0000  -0.7095   0.0000   0.0000   0.0000   0.3100
   2.000   0.3717   0.01520   0.00635  -0.0184  0.6641  1.0000  -0.7889   0.0000   0.0000   0.0000   0.2966
   2.500   0.4214   0.01538   0.00644  -0.0166  0.6346  1.0000  -0.8776   0.0000   0.0000   0.0000   0.2863
   3.000   0.4717   0.01558   0.00661  -0.0150  0.6028  1.0000  -0.9762   0.0000   0.0000   0.0000   0.2783
   3.500   0.5222   0.01583   0.00680  -0.0135  0.5683  1.0000  -1.0883   0.0000   0.0000   0.0000   0.2719
   4.000   0.5729   0.01613   0.00704  -0.0120  0.5319  1.0000  -1.2178   0.0000   0.0000   0.0000   0.2667
   4.500   0.6235   0.01656   0.00748  -0.0107  0.4920  1.0000  -1.3577   0.0000   0.0000   0.0000   0.2625
   5.000   0.6738   0.01710   0.00796  -0.0094  0.4504  1.0000  -1.5166   0.0000   0.0000   0.0000   0.2589
   5.500   0.7237   0.01781   0.00871  -0.0084  0.4057  1.0000  -1.6964   0.0000   0.0000   0.0000   0.2560
   6.000   0.7728   0.01867   0.00956  -0.0073  0.3594  1.0000  -1.8971   0.0000   0.0000   0.0000   0.2534
   6.500   0.8206   0.01972   0.01061  -0.0064  0.3118  1.0000  -2.1393   0.0000   0.0000   0.0000   0.2511
   7.000   0.8669   0.02100   0.01193  -0.0054  0.2645  1.0000  -2.4452   0.0000   0.0000   0.0000   0.2491
   7.500   0.9112   0.02257   0.01349  -0.0044  0.2209  1.0000  -2.7548   0.0000   0.0000   0.0000   0.2471
   8.000   0.9535   0.02442   0.01535  -0.0033  0.1834  1.0000  -3.2406   0.0000   0.0000   0.0000   0.2451
   8.500   0.9938   0.02656   0.01756  -0.0020  0.1531  1.0000  -3.7335   0.0000   0.0000   0.0000   0.2431
   9.000   1.0314   0.02899   0.02018  -0.0007  0.1273  1.0000  -4.2310   0.0000   0.0000   0.0000   0.2411
   9.500   1.0656   0.03164   0.02296   0.0008  0.1061  1.0000  -4.7569   0.0000   0.0000   0.0000   0.2390
  10.000   1.0965   0.03482   0.02625   0.0024  0.0894  1.0000  -5.3063   0.0000   0.0000   0.0000   0.2369
  10.500   1.1210   0.03825   0.02992   0.0041  0.0746  1.0000  -5.8151   0.0000   0.0000   0.0000   0.2347
  11.000   1.1387   0.04218   0.03440   0.0061  0.0637  1.0000  -6.2488   0.0000   0.0000   0.0000   0.2324
  11.500   1.1420   0.04708   0.03975   0.0080  0.0559  1.0000  -6.5530   0.0000   0.0000   0.0000   0.2300
  12.000   1.1427   0.05259   0.04557   0.0089  0.0507  1.0000  -6.8221   0.0000   0.0000   0.0000   0.2284
  12.500   1.1334   0.05991   0.05320   0.0086  0.0471  1.0000  -6.9676   0.0000   0.0000   0.0000   0.2279
  13.000   1.1029   0.06996   0.06385   0.0048  0.0454  1.0000  -6.8574   0.0000   0.0000   0.0000   0.2303
  13.500   1.0610   0.08338   0.07773  -0.0026  0.0452  1.0000  -6.5774   0.0000   0.0000   0.0000   0.2363
  14.000   1.0071   0.10134   0.09600  -0.0136  0.0467  1.0000  -6.0670   0.0000   0.0000   0.0000   0.2469
  15.000   0.8555   0.16417   0.15863  -0.0489  0.0517  1.0000  -3.4684   0.0000   0.0000   0.0000   0.2919


