xflr5 v6.62

 Calculated polar for: MH 45  9.85%

 1 1 Reynolds number fixed          Mach number fixed         

 xtrf =   1.000 (top)        1.000 (bottom)
 Mach =   0.000     Re =     0.542 e 6     Ncrit =   9.000

  alpha     CL        CD       CDp       Cm    Top Xtr Bot Xtr   Cpmin    Chinge    XCp    
 ------- -------- --------- --------- -------- ------- ------- -------- --------- ---------
  -4.000  -0.3572   0.01170   0.00508  -0.0050  0.7864  0.0130  -2.8180   0.0000   0.0000   0.0000   0.2320
  -3.000  -0.2513   0.00890   0.00262  -0.0034  0.7564  0.1660  -2.3208   0.0000   0.0000   0.0000   0.2326
  -2.000  -0.1437   0.00755   0.00204  -0.0026  0.7254  0.4114  -1.3930   0.0000   0.0000   0.0000   0.2275
  -1.000  -0.0369   0.00658   0.00169  -0.0012  0.6920  0.6431  -0.5808   0.0000   0.0000   0.0000   0.2102
   0.000   0.0833   0.00572   0.00158  -0.0015  0.6532  0.9483  -0.4790   0.0000   0.0000   0.0000   0.2671
   1.000   0.2322   0.00589   0.00144  -0.0091  0.6023  1.0000  -0.6223   0.0000   0.0000   0.0000   0.2870
   2.000   0.3415   0.00619   0.00145  -0.0085  0.5413  1.0000  -0.7786   0.0000   0.0000   0.0000   0.2717
   3.000   0.4508   0.00669   0.00165  -0.0079  0.4685  1.0000  -0.9744   0.0000   0.0000   0.0000   0.2638
   4.000   0.5595   0.00737   0.00208  -0.0074  0.3948  1.0000  -1.2281   0.0000   0.0000   0.0000   0.2588
   5.000   0.6673   0.00824   0.00273  -0.0070  0.3182  1.0000  -1.5436   0.0000   0.0000   0.0000   0.2552
   6.000   0.7738   0.00938   0.00363  -0.0066  0.2360  1.0000  -1.9580   0.0000   0.0000   0.0000   0.2523
   7.000   0.8779   0.01090   0.00490  -0.0062  0.1572  1.0000  -2.5797   0.0000   0.0000   0.0000   0.2498
   8.000   0.9794   0.01268   0.00652  -0.0055  0.1001  1.0000  -3.6651   0.0000   0.0000   0.0000   0.2472
   9.000   1.0774   0.01467   0.00842  -0.0048  0.0572  1.0000  -5.1499   0.0000   0.0000   0.0000   0.2447
  10.000   1.1708   0.01701   0.01082  -0.0037  0.0322  1.0000  -6.7750   0.0000   0.0000   0.0000   0.2420
  11.000   1.2548   0.02000   0.01390  -0.0020  0.0165  1.0000  -8.4484   0.0000   0.0000   0.0000   0.2390
  12.000   1.3119   0.02496   0.01904   0.0013  0.0036  1.0000  -9.6491   0.0000   0.0000   0.0000   0.2348
  13.000   1.3253   0.03281   0.02744   0.0042  0.0024  1.0000  -10.4525   0.0000   0.0000   0.0000   0.2309
  14.000   1.2961   0.04822   0.04351   0.0003  0.0021  1.0000  -10.7135   0.0000   0.0000   0.0000   0.2318
  15.000   1.2402   0.07107   0.06699  -0.0103  0.0020  1.0000  -10.5933   0.0000   0.0000   0.0000   0.2384
  16.000   1.1769   0.09858   0.09503  -0.0240  0.0021  1.0000  -10.2514   0.0000   0.0000   0.0000   0.2489
  17.000   1.1158   0.12814   0.12502  -0.0387  0.0021  1.0000  -9.7471   0.0000   0.0000   0.0000   0.2618
  18.000   1.0667   0.15745   0.15469  -0.0536  0.0022  1.0000  -9.1544   0.0000   0.0000   0.0000   0.2762
  19.000   1.0331   0.18564   0.18318  -0.0684  0.0023  1.0000  -8.4943   0.0000   0.0000   0.0000   0.2913
  20.000   0.5344   0.13255   0.13087  -0.0431  0.0048  1.0000  -2.3396   0.0000   0.0000   0.0000   0.3185


