xflr5 v6.62

 Calculated polar for: MH60-IL

 1 1 Reynolds number fixed          Mach number fixed         

 xtrf =   1.000 (top)        1.000 (bottom)
 Mach =   0.000     Re =     0.542 e 6     Ncrit =   9.000

  alpha     CL        CD       CDp       Cm    Top Xtr Bot Xtr   Cpmin    Chinge    XCp    
 ------- -------- --------- --------- -------- ------- ------- -------- --------- ---------
  -3.000  -0.2142   0.01237   0.00469   0.0109  0.4839  0.0158  -2.3815   0.0000   0.0000   0.0000   0.2945
  -2.000  -0.1030   0.01104   0.00302   0.0122  0.4434  0.0221  -1.8804   0.0000   0.0000   0.0000   0.3610
  -1.000  -0.0009   0.00855   0.00227   0.0136  0.4088  0.4995  -1.3084   0.0000   0.0000   0.0000  15.0038
   0.000   0.0880   0.00759   0.00258   0.0208  0.3781  0.9358  -0.8771   0.0000   0.0000   0.0000   0.0096
   1.000   0.2137   0.00807   0.00272   0.0195  0.3492  0.9732  -1.0241   0.0000   0.0000   0.0000   0.1532
   2.000   0.3923   0.00857   0.00287   0.0065  0.3208  0.9935  -1.2288   0.0000   0.0000   0.0000   0.2278
   3.000   0.5272   0.00896   0.00301   0.0016  0.2989  1.0000  -1.4128   0.0000   0.0000   0.0000   0.2407
   4.000   0.6303   0.00939   0.00334   0.0030  0.2827  1.0000  -1.5808   0.0000   0.0000   0.0000   0.2379
   5.000   0.7314   0.00992   0.00383   0.0049  0.2690  1.0000  -1.7602   0.0000   0.0000   0.0000   0.2350
   6.000   0.8306   0.01059   0.00451   0.0070  0.2557  1.0000  -1.9496   0.0000   0.0000   0.0000   0.2322
   7.000   0.9292   0.01145   0.00538   0.0091  0.2430  1.0000  -2.1496   0.0000   0.0000   0.0000   0.2297
   8.000   1.0303   0.01236   0.00632   0.0105  0.2304  1.0000  -2.3726   0.0000   0.0000   0.0000   0.2280
   9.000   1.1345   0.01325   0.00739   0.0110  0.2186  1.0000  -2.6296   0.0000   0.0000   0.0000   0.2270
  10.000   1.2376   0.01441   0.00871   0.0113  0.2057  1.0000  -2.9299   0.0000   0.0000   0.0000   0.2261
  11.000   1.3382   0.01575   0.01021   0.0115  0.1921  1.0000  -3.2875   0.0000   0.0000   0.0000   0.2250
  12.000   1.4347   0.01732   0.01197   0.0117  0.1774  1.0000  -3.7555   0.0000   0.0000   0.0000   0.2236
  13.000   1.5255   0.01909   0.01399   0.0121  0.1592  1.0000  -4.8690   0.0000   0.0000   0.0000   0.2219
  14.000   1.5925   0.02227   0.01731   0.0132  0.1350  1.0000  -5.9358   0.0000   0.0000   0.0000   0.2195
  15.000   1.6143   0.03004   0.02534   0.0117  0.1142  1.0000  -6.7312   0.0000   0.0000   0.0000   0.2183
  16.000   1.5861   0.04508   0.04067   0.0059  0.0967  1.0000  -7.1493   0.0000   0.0000   0.0000   0.2194
  17.000   1.5148   0.06620   0.06214  -0.0021  0.0853  1.0000  -7.1963   0.0000   0.0000   0.0000   0.2221
  18.000   1.4370   0.09061   0.08687  -0.0126  0.0753  1.0000  -7.1331   0.0000   0.0000   0.0000   0.2271
  19.000   1.3703   0.11504   0.11155  -0.0239  0.0649  1.0000  -7.1074   0.0000   0.0000   0.0000   0.2335
  20.000   1.3190   0.13828   0.13501  -0.0356  0.0544  1.0000  -7.1593   0.0000   0.0000   0.0000   0.2409


