xflr5 v6.62

 Calculated polar for: MH60-IL

 1 1 Reynolds number fixed          Mach number fixed         

 xtrf =   1.000 (top)        1.000 (bottom)
 Mach =   0.000     Re =     0.300 e 6     Ncrit =   6.000

  alpha     CL        CD       CDp       Cm    Top Xtr Bot Xtr   Cpmin    Chinge    XCp    
 ------- -------- --------- --------- -------- ------- ------- -------- --------- ---------
  -5.000  -0.4230   0.01897   0.01109   0.0064  0.5751  0.0135  -3.6828   0.0000   0.0000   0.0000   0.2587
  -4.500  -0.3703   0.01719   0.00903   0.0075  0.5500  0.0136  -3.3973   0.0000   0.0000   0.0000   0.2638
  -4.000  -0.3174   0.01580   0.00742   0.0085  0.5256  0.0140  -3.0948   0.0000   0.0000   0.0000   0.2704
  -3.500  -0.2639   0.01472   0.00615   0.0094  0.5032  0.0147  -2.7881   0.0000   0.0000   0.0000   0.2791
  -3.000  -0.2095   0.01391   0.00512   0.0101  0.4820  0.0160  -2.4904   0.0000   0.0000   0.0000   0.2917
  -2.500  -0.1544   0.01322   0.00425   0.0108  0.4614  0.0202  -2.2184   0.0000   0.0000   0.0000   0.3130
  -2.000  -0.1009   0.01224   0.00355   0.0115  0.4432  0.0988  -1.9590   0.0000   0.0000   0.0000   0.3558
  -1.500  -0.0497   0.01112   0.00322   0.0120  0.4255  0.3043  -1.6177   0.0000   0.0000   0.0000   0.4808
  -1.000  -0.0069   0.00948   0.00300   0.0144  0.4087  0.6730  -1.3061   0.0000   0.0000   0.0000   2.2967
  -0.500   0.0410   0.00921   0.00325   0.0179  0.3933  0.8770  -0.9900   0.0000   0.0000   0.0000  -0.1880
   0.000   0.0975   0.00943   0.00331   0.0189  0.3786  0.9230  -0.8822   0.0000   0.0000   0.0000   0.0522
   0.500   0.1595   0.00967   0.00334   0.0185  0.3635  0.9499  -0.9546   0.0000   0.0000   0.0000   0.1295
   1.000   0.2313   0.00995   0.00339   0.0159  0.3494  0.9707  -1.0356   0.0000   0.0000   0.0000   0.1763
   1.500   0.3274   0.01024   0.00344   0.0080  0.3346  0.9875  -1.1429   0.0000   0.0000   0.0000   0.2202
   2.000   0.4116   0.01038   0.00343   0.0023  0.3210  0.9976  -1.2423   0.0000   0.0000   0.0000   0.2389
   2.500   0.4714   0.01058   0.00352   0.0014  0.3115  1.0000  -1.3256   0.0000   0.0000   0.0000   0.2412
   3.000   0.5226   0.01082   0.00365   0.0021  0.3020  1.0000  -1.4057   0.0000   0.0000   0.0000   0.2396
   3.500   0.5734   0.01109   0.00386   0.0030  0.2934  1.0000  -1.4863   0.0000   0.0000   0.0000   0.2380
   4.000   0.6237   0.01139   0.00411   0.0039  0.2854  1.0000  -1.5705   0.0000   0.0000   0.0000   0.2364
   4.500   0.6735   0.01177   0.00442   0.0050  0.2782  1.0000  -1.6584   0.0000   0.0000   0.0000   0.2349
   5.000   0.7233   0.01209   0.00474   0.0060  0.2704  1.0000  -1.7476   0.0000   0.0000   0.0000   0.2334
   5.500   0.7723   0.01256   0.00515   0.0071  0.2636  1.0000  -1.8369   0.0000   0.0000   0.0000   0.2320
   6.000   0.8221   0.01295   0.00560   0.0080  0.2574  1.0000  -1.9347   0.0000   0.0000   0.0000   0.2309
   6.500   0.8716   0.01338   0.00606   0.0090  0.2502  1.0000  -2.0344   0.0000   0.0000   0.0000   0.2297
   7.000   0.9210   0.01396   0.00662   0.0098  0.2443  1.0000  -2.1344   0.0000   0.0000   0.0000   0.2288
   7.500   0.9719   0.01443   0.00721   0.0104  0.2383  1.0000  -2.2432   0.0000   0.0000   0.0000   0.2281
   8.000   1.0224   0.01500   0.00779   0.0109  0.2315  1.0000  -2.3563   0.0000   0.0000   0.0000   0.2274
   8.500   1.0729   0.01566   0.00853   0.0113  0.2258  1.0000  -2.4765   0.0000   0.0000   0.0000   0.2269
   9.000   1.1238   0.01625   0.00928   0.0116  0.2195  1.0000  -2.6062   0.0000   0.0000   0.0000   0.2264
   9.500   1.1732   0.01700   0.01004   0.0119  0.2129  1.0000  -2.7448   0.0000   0.0000   0.0000   0.2258
  10.000   1.2230   0.01773   0.01097   0.0122  0.2069  1.0000  -2.8953   0.0000   0.0000   0.0000   0.2252
  10.500   1.2716   0.01848   0.01185   0.0124  0.2000  1.0000  -3.0607   0.0000   0.0000   0.0000   0.2246
  11.000   1.3181   0.01943   0.01289   0.0127  0.1934  1.0000  -3.2369   0.0000   0.0000   0.0000   0.2239
  11.500   1.3644   0.02031   0.01401   0.0130  0.1861  1.0000  -3.4279   0.0000   0.0000   0.0000   0.2231
  12.000   1.4060   0.02151   0.01526   0.0135  0.1789  1.0000  -3.6257   0.0000   0.0000   0.0000   0.2222
  12.500   1.4473   0.02265   0.01670   0.0139  0.1716  1.0000  -4.0457   0.0000   0.0000   0.0000   0.2212
  13.000   1.4797   0.02430   0.01843   0.0146  0.1639  1.0000  -4.5200   0.0000   0.0000   0.0000   0.2200
  13.500   1.5045   0.02630   0.02071   0.0155  0.1569  1.0000  -4.9641   0.0000   0.0000   0.0000   0.2186
  14.000   1.5175   0.02969   0.02423   0.0150  0.1494  1.0000  -5.3414   0.0000   0.0000   0.0000   0.2179
  14.500   1.5289   0.03384   0.02866   0.0136  0.1420  1.0000  -5.7124   0.0000   0.0000   0.0000   0.2177
  15.000   1.5256   0.03986   0.03480   0.0112  0.1342  1.0000  -5.9831   0.0000   0.0000   0.0000   0.2181


