xflr5 v6.62

 Calculated polar for: MH60-IL

 1 1 Reynolds number fixed          Mach number fixed         

 xtrf =   1.000 (top)        1.000 (bottom)
 Mach =   0.000     Re =     0.010 e 6     Ncrit =   6.000

  alpha     CL        CD       CDp       Cm    Top Xtr Bot Xtr   Cpmin    Chinge    XCp    
 ------- -------- --------- --------- -------- ------- ------- -------- --------- ---------
  -5.000  -0.3762   0.06373   0.05193  -0.0057  1.0000  0.3549  -2.2225   0.0000   0.0000   0.0000   0.2291
  -4.500  -0.3617   0.05832   0.04659  -0.0041  1.0000  0.3962  -2.2431   0.0000   0.0000   0.0000   0.2330
  -4.000  -0.3509   0.05396   0.04257   0.0007  1.0000  0.4571  -2.2470   0.0000   0.0000   0.0000   0.2465
  -3.500  -0.3380   0.05011   0.03941   0.0089  1.0000  0.5649  -2.2376   0.0000   0.0000   0.0000   0.2706
  -3.000  -0.1043   0.04243   0.02937  -0.0234  1.0000  1.0000  -1.8469   0.0000   0.0000   0.0000   0.0100
  -2.500  -0.1241   0.04290   0.02902  -0.0184  1.0000  1.0000  -1.8106   0.0000   0.0000   0.0000   0.0891
  -2.000  -0.1299   0.04366   0.02882  -0.0146  1.0000  1.0000  -1.7239   0.0000   0.0000   0.0000   0.1271
  -1.500  -0.1263   0.04466   0.02886  -0.0116  1.0000  1.0000  -1.6044   0.0000   0.0000   0.0000   0.1480
  -1.000  -0.1158   0.04590   0.02911  -0.0096  1.0000  1.0000  -1.4623   0.0000   0.0000   0.0000   0.1577
  -0.500  -0.1006   0.04737   0.02971  -0.0083  1.0000  1.0000  -1.3068   0.0000   0.0000   0.0000   0.1587
   0.000  -0.0589   0.04989   0.03127  -0.0119  0.9852  1.0000  -1.0829   0.0000   0.0000   0.0000   0.0367
   0.500   0.0161   0.05396   0.03426  -0.0212  0.9458  1.0000  -0.7816   0.0000   0.0000   0.0000   1.5955
   1.000   0.0705   0.05768   0.03722  -0.0263  0.9138  1.0000  -0.6351   0.0000   0.0000   0.0000   0.6259
   1.500   0.1206   0.06162   0.04051  -0.0304  0.8859  1.0000  -0.6672   0.0000   0.0000   0.0000   0.5017
   2.000   0.1586   0.06534   0.04367  -0.0324  0.8618  1.0000  -0.6922   0.0000   0.0000   0.0000   0.4525
   2.500   0.1939   0.06924   0.04713  -0.0341  0.8419  1.0000  -0.7164   0.0000   0.0000   0.0000   0.4228
   3.000   0.2254   0.07323   0.05072  -0.0352  0.8246  1.0000  -0.7356   0.0000   0.0000   0.0000   0.4026
   3.500   0.2546   0.07737   0.05451  -0.0362  0.8105  1.0000  -0.7550   0.0000   0.0000   0.0000   0.3878
   4.000   0.2870   0.08197   0.05881  -0.0378  0.7972  1.0000  -0.7781   0.0000   0.0000   0.0000   0.3766
   4.500   0.3035   0.08582   0.06245  -0.0375  0.7913  1.0000  -0.7844   0.0000   0.0000   0.0000   0.3678
   5.000   0.3303   0.09053   0.06698  -0.0387  0.7820  1.0000  -0.8010   0.0000   0.0000   0.0000   0.3608
   5.500   0.3453   0.09470   0.07100  -0.0388  0.7842  1.0000  -0.8078   0.0000   0.0000   0.0000   0.3555
   6.000   0.3644   0.09929   0.07548  -0.0395  0.7837  1.0000  -0.8167   0.0000   0.0000   0.0000   0.3510
   6.500   0.3777   0.10366   0.07976  -0.0400  0.7934  1.0000  -0.8178   0.0000   0.0000   0.0000   0.3478
   7.000   0.3820   0.10736   0.08342  -0.0399  0.8216  1.0000  -0.8138   0.0000   0.0000   0.0000   0.3456
   7.500   0.3793   0.11033   0.08635  -0.0388  0.8668  1.0000  -0.8018   0.0000   0.0000   0.0000   0.3427
   8.000   0.2998   0.10355   0.07941  -0.0216  1.0000  1.0000  -0.7300   0.0000   0.0000   0.0000   0.3105
   8.500   0.3227   0.10839   0.08425  -0.0234  1.0000  1.0000  -0.7425   0.0000   0.0000   0.0000   0.3105
   9.000   0.3454   0.11336   0.08929  -0.0252  1.0000  1.0000  -0.7591   0.0000   0.0000   0.0000   0.3107
   9.500   0.3678   0.11846   0.09443  -0.0272  1.0000  1.0000  -0.7731   0.0000   0.0000   0.0000   0.3111
  10.000   0.3899   0.12368   0.09971  -0.0292  1.0000  1.0000  -0.7884   0.0000   0.0000   0.0000   0.3117
  10.500   0.4118   0.12902   0.10514  -0.0314  1.0000  1.0000  -0.8062   0.0000   0.0000   0.0000   0.3124
  11.000   0.4334   0.13447   0.11071  -0.0336  1.0000  1.0000  -0.8214   0.0000   0.0000   0.0000   0.3133
  11.500   0.4548   0.14004   0.11651  -0.0359  1.0000  1.0000  -0.8400   0.0000   0.0000   0.0000   0.3142
  12.000   0.4760   0.14572   0.12234  -0.0384  1.0000  1.0000  -0.8590   0.0000   0.0000   0.0000   0.3153
  12.500   0.5291   0.15831   0.13523  -0.0486  0.9637  1.0000  -0.9037   0.0000   0.0000   0.0000   0.3260
  13.000   0.5735   0.16863   0.14590  -0.0561  0.9079  1.0000  -0.9479   0.0000   0.0000   0.0000   0.3316
  13.500   0.6052   0.17666   0.15433  -0.0603  0.8610  1.0000  -0.9781   0.0000   0.0000   0.0000   0.3330
  14.000   0.6326   0.18452   0.16247  -0.0638  0.8264  1.0000  -1.0121   0.0000   0.0000   0.0000   0.3335
  14.500   0.6602   0.19267   0.17091  -0.0669  0.7859  1.0000  -1.0446   0.0000   0.0000   0.0000   0.3335
  15.000   0.6839   0.20038   0.17898  -0.0696  0.7557  1.0000  -1.0759   0.0000   0.0000   0.0000   0.3333


