xflr5 v6.62

 Calculated polar for: MH60-IL

 1 1 Reynolds number fixed          Mach number fixed         

 xtrf =   1.000 (top)        1.000 (bottom)
 Mach =   0.000     Re =     0.100 e 6     Ncrit =   6.000

  alpha     CL        CD       CDp       Cm    Top Xtr Bot Xtr   Cpmin    Chinge    XCp    
 ------- -------- --------- --------- -------- ------- ------- -------- --------- ---------
  -5.000  -0.3921   0.02753   0.01880  -0.0023  0.7002  0.0284  -3.0844   0.0000   0.0000   0.0000   0.2372
  -4.500  -0.3417   0.02470   0.01532  -0.0002  0.6686  0.0292  -2.9402   0.0000   0.0000   0.0000   0.2423
  -4.000  -0.2913   0.02222   0.01262   0.0014  0.6377  0.0314  -2.7494   0.0000   0.0000   0.0000   0.2477
  -3.500  -0.2414   0.02055   0.01067   0.0032  0.6105  0.0362  -2.5543   0.0000   0.0000   0.0000   0.2560
  -3.000  -0.1911   0.01905   0.00907   0.0047  0.5834  0.0547  -2.3510   0.0000   0.0000   0.0000   0.2667
  -2.500  -0.1445   0.01675   0.00774   0.0064  0.5595  0.2403  -2.1919   0.0000   0.0000   0.0000   0.2860
  -2.000  -0.1047   0.01462   0.00739   0.0102  0.5378  0.6496  -1.8985   0.0000   0.0000   0.0000   0.3385
  -1.500  -0.0318   0.01490   0.00785   0.0114  0.5130  0.9094  -1.4861   0.0000   0.0000   0.0000   0.5882
  -1.000   0.0612   0.01526   0.00759   0.0058  0.4875  0.9657  -1.0419   0.0000   0.0000   0.0000   0.1592
  -0.500   0.1705   0.01527   0.00698  -0.0044  0.4636  1.0000  -0.8924   0.0000   0.0000   0.0000   0.2746
   0.000   0.2205   0.01540   0.00676  -0.0036  0.4459  1.0000  -0.9535   0.0000   0.0000   0.0000   0.2642
   0.500   0.2707   0.01562   0.00668  -0.0028  0.4290  1.0000  -1.0156   0.0000   0.0000   0.0000   0.2573
   1.000   0.3208   0.01593   0.00675  -0.0020  0.4140  1.0000  -1.0826   0.0000   0.0000   0.0000   0.2524
   1.500   0.3706   0.01630   0.00689  -0.0010  0.4001  1.0000  -1.1503   0.0000   0.0000   0.0000   0.2484
   2.000   0.4199   0.01671   0.00703   0.0001  0.3876  1.0000  -1.2191   0.0000   0.0000   0.0000   0.2449
   2.500   0.4695   0.01721   0.00745   0.0010  0.3750  1.0000  -1.2924   0.0000   0.0000   0.0000   0.2425
   3.000   0.5187   0.01779   0.00791   0.0020  0.3637  1.0000  -1.3666   0.0000   0.0000   0.0000   0.2402
   3.500   0.5675   0.01834   0.00828   0.0032  0.3533  1.0000  -1.4428   0.0000   0.0000   0.0000   0.2380
   4.000   0.6163   0.01910   0.00911   0.0041  0.3429  1.0000  -1.5220   0.0000   0.0000   0.0000   0.2365
   4.500   0.6649   0.01975   0.00956   0.0053  0.3344  1.0000  -1.6065   0.0000   0.0000   0.0000   0.2346
   5.000   0.7128   0.02063   0.01058   0.0062  0.3239  1.0000  -1.6864   0.0000   0.0000   0.0000   0.2334
   5.500   0.7616   0.02140   0.01125   0.0073  0.3167  1.0000  -1.7760   0.0000   0.0000   0.0000   0.2320
   6.000   0.8089   0.02250   0.01257   0.0080  0.3071  1.0000  -1.8629   0.0000   0.0000   0.0000   0.2311
   6.500   0.8580   0.02330   0.01326   0.0089  0.2995  1.0000  -1.9589   0.0000   0.0000   0.0000   0.2300
   7.000   0.9043   0.02471   0.01500   0.0095  0.2913  1.0000  -2.0478   0.0000   0.0000   0.0000   0.2294
   7.500   0.9525   0.02569   0.01601   0.0102  0.2836  1.0000  -2.1515   0.0000   0.0000   0.0000   0.2285
   8.000   0.9981   0.02716   0.01772   0.0107  0.2759  1.0000  -2.2507   0.0000   0.0000   0.0000   0.2279
   8.500   1.0427   0.02868   0.01948   0.0113  0.2684  1.0000  -2.3566   0.0000   0.0000   0.0000   0.2271
   9.000   1.0909   0.02980   0.02061   0.0119  0.2620  1.0000  -2.4818   0.0000   0.0000   0.0000   0.2263
   9.500   1.1262   0.03221   0.02353   0.0123  0.2533  1.0000  -2.5818   0.0000   0.0000   0.0000   0.2256
  10.000   1.1733   0.03331   0.02466   0.0130  0.2473  1.0000  -2.7243   0.0000   0.0000   0.0000   0.2247
  10.500   1.1991   0.03647   0.02835   0.0135  0.2390  1.0000  -2.8257   0.0000   0.0000   0.0000   0.2237
  11.000   1.2337   0.03845   0.03056   0.0142  0.2322  1.0000  -2.9598   0.0000   0.0000   0.0000   0.2226
  11.500   1.2602   0.04112   0.03348   0.0149  0.2255  1.0000  -3.0851   0.0000   0.0000   0.0000   0.2214
  12.000   1.1967   0.05153   0.04443   0.0128  0.2175  1.0000  -2.9780   0.0000   0.0000   0.0000   0.2216
  12.500   1.1500   0.06337   0.05645   0.0072  0.2102  1.0000  -2.8961   0.0000   0.0000   0.0000   0.2250
  14.000   0.8996   0.12906   0.12231  -0.0257  0.1650  1.0000  -2.0955   0.0000   0.0000   0.0000   0.2589
  14.500   0.8715   0.14296   0.13630  -0.0325  0.1540  1.0000  -1.9715   0.0000   0.0000   0.0000   0.2674
  15.000   0.9001   0.14531   0.13880  -0.0325  0.1495  1.0000  -2.1009   0.0000   0.0000   0.0000   0.2650


