xflr5 v6.62

 Calculated polar for: MH60-IL

 1 1 Reynolds number fixed          Mach number fixed         

 xtrf =   1.000 (top)        1.000 (bottom)
 Mach =   0.000     Re =     0.040 e 6     Ncrit =   6.000

  alpha     CL        CD       CDp       Cm    Top Xtr Bot Xtr   Cpmin    Chinge    XCp    
 ------- -------- --------- --------- -------- ------- ------- -------- --------- ---------
  -5.000  -0.3192   0.03601   0.02648  -0.0270  0.8790  0.0714  -2.6212   0.0000   0.0000   0.0000   0.1575
  -4.500  -0.2680   0.03274   0.02273  -0.0247  0.8266  0.0799  -2.5206   0.0000   0.0000   0.0000   0.1491
  -4.000  -0.2175   0.03043   0.01986  -0.0216  0.7827  0.1019  -2.4228   0.0000   0.0000   0.0000   0.1412
  -3.500  -0.1701   0.02798   0.01753  -0.0187  0.7446  0.1604  -2.3268   0.0000   0.0000   0.0000   0.1295
  -3.000  -0.1397   0.02457   0.01587  -0.0139  0.7118  0.4179  -2.2225   0.0000   0.0000   0.0000   0.1393
  -2.500  -0.0401   0.02431   0.01656  -0.0110  0.6748  0.9317  -1.7596   0.0000   0.0000   0.0000  -0.0576
  -2.000   0.0760   0.02405   0.01503  -0.0217  0.6367  1.0000  -1.2629   0.0000   0.0000   0.0000   0.5481
  -1.500   0.1183   0.02428   0.01457  -0.0201  0.6110  1.0000  -0.9991   0.0000   0.0000   0.0000   0.4253
  -1.000   0.1644   0.02480   0.01457  -0.0194  0.5842  1.0000  -0.8180   0.0000   0.0000   0.0000   0.3704
  -0.500   0.2091   0.02541   0.01471  -0.0180  0.5611  1.0000  -0.8691   0.0000   0.0000   0.0000   0.3366
   0.000   0.2539   0.02617   0.01503  -0.0165  0.5403  1.0000  -0.9202   0.0000   0.0000   0.0000   0.3145
   0.500   0.2988   0.02707   0.01557  -0.0151  0.5206  1.0000  -0.9764   0.0000   0.0000   0.0000   0.2990
   1.000   0.3439   0.02819   0.01642  -0.0140  0.5023  1.0000  -1.0316   0.0000   0.0000   0.0000   0.2883
   1.500   0.3885   0.02953   0.01754  -0.0130  0.4849  1.0000  -1.0850   0.0000   0.0000   0.0000   0.2805
   2.000   0.4320   0.03109   0.01895  -0.0120  0.4684  1.0000  -1.1426   0.0000   0.0000   0.0000   0.2743
   2.500   0.4742   0.03298   0.02074  -0.0112  0.4537  1.0000  -1.1969   0.0000   0.0000   0.0000   0.2697
   3.000   0.5158   0.03464   0.02224  -0.0097  0.4403  1.0000  -1.2540   0.0000   0.0000   0.0000   0.2643
   3.500   0.5560   0.03669   0.02424  -0.0086  0.4274  1.0000  -1.3132   0.0000   0.0000   0.0000   0.2605
   4.000   0.5889   0.04016   0.02785  -0.0089  0.4131  1.0000  -1.3537   0.0000   0.0000   0.0000   0.2595
   4.500   0.6209   0.04343   0.03115  -0.0085  0.4005  1.0000  -1.3956   0.0000   0.0000   0.0000   0.2577
   5.000   0.6565   0.04622   0.03392  -0.0075  0.3904  1.0000  -1.4515   0.0000   0.0000   0.0000   0.2550
   5.500   0.6642   0.05286   0.04073  -0.0096  0.3760  1.0000  -1.4467   0.0000   0.0000   0.0000   0.2575
   6.000   0.6672   0.06009   0.04804  -0.0120  0.3646  1.0000  -1.4301   0.0000   0.0000   0.0000   0.2606
   6.500   0.6828   0.06559   0.05356  -0.0131  0.3544  1.0000  -1.4468   0.0000   0.0000   0.0000   0.2613
   7.000   0.6534   0.07551   0.06347  -0.0172  0.3425  1.0000  -1.3692   0.0000   0.0000   0.0000   0.2678
   7.500   0.6763   0.08029   0.06833  -0.0173  0.3358  1.0000  -1.3997   0.0000   0.0000   0.0000   0.2665
   8.000   0.6580   0.08894   0.07699  -0.0204  0.3263  1.0000  -1.3450   0.0000   0.0000   0.0000   0.2715
   8.500   0.6767   0.09426   0.08235  -0.0210  0.3188  1.0000  -1.3703   0.0000   0.0000   0.0000   0.2709
   9.000   0.6794   0.10153   0.08967  -0.0230  0.3134  1.0000  -1.3575   0.0000   0.0000   0.0000   0.2733
   9.500   0.6756   0.10871   0.09691  -0.0253  0.3048  1.0000  -1.3334   0.0000   0.0000   0.0000   0.2764
  10.000   0.7057   0.11385   0.10220  -0.0254  0.2990  1.0000  -1.3875   0.0000   0.0000   0.0000   0.2743
  10.500   0.6946   0.12227   0.11070  -0.0288  0.2951  1.0000  -1.3426   0.0000   0.0000   0.0000   0.2793
  11.000   0.6945   0.12906   0.11758  -0.0311  0.2874  1.0000  -1.3260   0.0000   0.0000   0.0000   0.2820
  11.500   0.6967   0.13679   0.12543  -0.0338  0.2878  1.0000  -1.3067   0.0000   0.0000   0.0000   0.2853
  12.000   0.7230   0.14274   0.13149  -0.0344  0.2791  1.0000  -1.3646   0.0000   0.0000   0.0000   0.2837
  12.500   0.7172   0.14999   0.13885  -0.0376  0.2756  1.0000  -1.3260   0.0000   0.0000   0.0000   0.2880
  13.500   0.3058   0.07685   0.06814  -0.0013  0.3156  1.0000  -0.4740   0.0000   0.0000   0.0000   0.2521
  14.000   0.3156   0.08015   0.07149  -0.0034  0.3025  1.0000  -0.4791   0.0000   0.0000   0.0000   0.2578
  14.500   0.3365   0.08587   0.07731  -0.0050  0.2973  1.0000  -0.5049   0.0000   0.0000   0.0000   0.2611
  15.000   0.3487   0.08976   0.08127  -0.0071  0.2845  1.0000  -0.5151   0.0000   0.0000   0.0000   0.2661


