xflr5 v6.62

 Calculated polar for: MH60-IL

 1 1 Reynolds number fixed          Mach number fixed         

 xtrf =   1.000 (top)        1.000 (bottom)
 Mach =   0.000     Re =     0.020 e 6     Ncrit =   6.000

  alpha     CL        CD       CDp       Cm    Top Xtr Bot Xtr   Cpmin    Chinge    XCp    
 ------- -------- --------- --------- -------- ------- ------- -------- --------- ---------
  -5.000  -0.3882   0.05001   0.04004  -0.0177  1.0000  0.1470  -2.4178   0.0000   0.0000   0.0000   0.1983
  -4.500  -0.3800   0.04675   0.03610  -0.0148  1.0000  0.1567  -2.4423   0.0000   0.0000   0.0000   0.2051
  -4.000  -0.3538   0.04374   0.03255  -0.0138  0.9954  0.1747  -2.4246   0.0000   0.0000   0.0000   0.2049
  -3.500  -0.2382   0.03838   0.02724  -0.0255  0.9432  0.2772  -2.3111   0.0000   0.0000   0.0000   0.1350
  -3.000   0.0594   0.03247   0.02255  -0.0532  0.8909  1.0000  -1.5562   0.0000   0.0000   0.0000   1.1715
  -2.500   0.1129   0.03331   0.02227  -0.0558  0.8361  1.0000  -1.2834   0.0000   0.0000   0.0000   0.7556
  -2.000   0.1508   0.03466   0.02280  -0.0548  0.7920  1.0000  -1.0518   0.0000   0.0000   0.0000   0.6205
  -1.500   0.1856   0.03625   0.02367  -0.0528  0.7548  1.0000  -0.8337   0.0000   0.0000   0.0000   0.5394
  -1.000   0.2201   0.03798   0.02476  -0.0504  0.7226  1.0000  -0.7870   0.0000   0.0000   0.0000   0.4818
  -0.500   0.2496   0.04009   0.02639  -0.0482  0.6930  1.0000  -0.8150   0.0000   0.0000   0.0000   0.4449
   0.000   0.2835   0.04217   0.02794  -0.0456  0.6680  1.0000  -0.8529   0.0000   0.0000   0.0000   0.4117
   0.500   0.3073   0.04486   0.03027  -0.0436  0.6436  1.0000  -0.8765   0.0000   0.0000   0.0000   0.3918
   1.000   0.3314   0.04772   0.03279  -0.0415  0.6226  1.0000  -0.8992   0.0000   0.0000   0.0000   0.3743
   1.500   0.3549   0.05077   0.03552  -0.0394  0.6028  1.0000  -0.9244   0.0000   0.0000   0.0000   0.3596
   2.000   0.3774   0.05418   0.03864  -0.0379  0.5860  1.0000  -0.9464   0.0000   0.0000   0.0000   0.3483
   2.500   0.4010   0.05770   0.04191  -0.0364  0.5700  1.0000  -0.9680   0.0000   0.0000   0.0000   0.3382
   3.000   0.4294   0.06125   0.04521  -0.0352  0.5550  1.0000  -0.9991   0.0000   0.0000   0.0000   0.3286
   3.500   0.4326   0.06598   0.04980  -0.0346  0.5432  1.0000  -0.9926   0.0000   0.0000   0.0000   0.3263
   4.000   0.4492   0.07025   0.05390  -0.0339  0.5300  1.0000  -1.0044   0.0000   0.0000   0.0000   0.3211
   4.500   0.4655   0.07488   0.05839  -0.0336  0.5214  1.0000  -1.0139   0.0000   0.0000   0.0000   0.3173
   5.000   0.4736   0.07962   0.06299  -0.0329  0.5118  1.0000  -1.0163   0.0000   0.0000   0.0000   0.3141
   5.500   0.4926   0.08439   0.06768  -0.0328  0.5023  1.0000  -1.0308   0.0000   0.0000   0.0000   0.3107
   6.000   0.5082   0.08976   0.07303  -0.0334  0.4979  1.0000  -1.0356   0.0000   0.0000   0.0000   0.3092
   6.500   0.5104   0.09484   0.07806  -0.0335  0.4908  1.0000  -1.0275   0.0000   0.0000   0.0000   0.3087
   7.000   0.5204   0.10047   0.08367  -0.0345  0.4900  1.0000  -1.0250   0.0000   0.0000   0.0000   0.3088
   7.500   0.5303   0.10628   0.08948  -0.0358  0.4914  1.0000  -1.0199   0.0000   0.0000   0.0000   0.3094
   8.000   0.5417   0.11192   0.09515  -0.0368  0.4895  1.0000  -1.0241   0.0000   0.0000   0.0000   0.3094
   9.500   0.5318   0.13119   0.11473  -0.0473  0.6220  1.0000  -0.9292   0.0000   0.0000   0.0000   0.3284
  10.000   0.5597   0.13848   0.12218  -0.0491  0.6104  1.0000  -0.9562   0.0000   0.0000   0.0000   0.3268
  10.500   0.5759   0.14367   0.12744  -0.0494  0.5902  1.0000  -0.9742   0.0000   0.0000   0.0000   0.3242
  11.000   0.5923   0.14897   0.13283  -0.0498  0.5694  1.0000  -0.9945   0.0000   0.0000   0.0000   0.3220
  11.500   0.6201   0.15684   0.14083  -0.0516  0.5547  1.0000  -1.0255   0.0000   0.0000   0.0000   0.3206
  12.000   0.6361   0.16240   0.14650  -0.0523  0.5354  1.0000  -1.0491   0.0000   0.0000   0.0000   0.3190
  12.500   0.6540   0.16850   0.15283  -0.0533  0.5167  1.0000  -1.0731   0.0000   0.0000   0.0000   0.3177
  13.000   0.6702   0.17430   0.15879  -0.0545  0.5010  1.0000  -1.0933   0.0000   0.0000   0.0000   0.3170
  13.500   0.6887   0.18077   0.16543  -0.0558  0.4820  1.0000  -1.1235   0.0000   0.0000   0.0000   0.3160
  14.000   0.7000   0.18559   0.17039  -0.0571  0.4656  1.0000  -1.1368   0.0000   0.0000   0.0000   0.3158
  14.500   0.7116   0.19094   0.17595  -0.0589  0.4538  1.0000  -1.1523   0.0000   0.0000   0.0000   0.3163
  15.000   0.7285   0.19722   0.18241  -0.0606  0.4361  1.0000  -1.1797   0.0000   0.0000   0.0000   0.3161


