xflr5 v6.62

 Calculated polar for: MH60-IL

 1 1 Reynolds number fixed          Mach number fixed         

 xtrf =   1.000 (top)        1.000 (bottom)
 Mach =   0.000     Re =     1.000 e 6     Ncrit =   6.000

  alpha     CL        CD       CDp       Cm    Top Xtr Bot Xtr   Cpmin    Chinge    XCp    
 ------- -------- --------- --------- -------- ------- ------- -------- --------- ---------
  -5.000  -0.4424   0.01307   0.00633   0.0102  0.4737  0.0070  -4.3187   0.0000   0.0000   0.0000   0.2668
  -4.500  -0.3876   0.01228   0.00538   0.0109  0.4527  0.0073  -3.8756   0.0000   0.0000   0.0000   0.2718
  -4.000  -0.3322   0.01166   0.00462   0.0114  0.4338  0.0077  -3.4293   0.0000   0.0000   0.0000   0.2781
  -3.500  -0.2765   0.01106   0.00389   0.0119  0.4171  0.0079  -3.0244   0.0000   0.0000   0.0000   0.2868
  -3.000  -0.2204   0.01053   0.00323   0.0123  0.3996  0.0080  -2.6528   0.0000   0.0000   0.0000   0.2997
  -2.500  -0.1638   0.01014   0.00271   0.0127  0.3830  0.0082  -2.2878   0.0000   0.0000   0.0000   0.3210
  -2.000  -0.1069   0.00983   0.00229   0.0130  0.3682  0.0088  -1.9502   0.0000   0.0000   0.0000   0.3646
  -1.500  -0.0502   0.00948   0.00194   0.0133  0.3537  0.0284  -1.6449   0.0000   0.0000   0.0000   0.5058
  -1.000   0.0054   0.00896   0.00172   0.0135  0.3396  0.1190  -1.2985   0.0000   0.0000   0.0000  -2.2479
  -0.500   0.0611   0.00852   0.00160   0.0137  0.3278  0.2261  -0.9604   0.0000   0.0000   0.0000   0.0234
   0.000   0.1126   0.00746   0.00149   0.0142  0.3159  0.5263  -0.8976   0.0000   0.0000   0.0000   0.1194
   0.500   0.1631   0.00668   0.00145   0.0155  0.3054  0.7627  -0.9626   0.0000   0.0000   0.0000   0.1499
   1.000   0.2162   0.00656   0.00157   0.0167  0.2952  0.8641  -1.0305   0.0000   0.0000   0.0000   0.1672
   1.500   0.2717   0.00666   0.00167   0.0174  0.2860  0.9005  -1.1048   0.0000   0.0000   0.0000   0.1803
   2.000   0.3271   0.00681   0.00179   0.0180  0.2773  0.9244  -1.1810   0.0000   0.0000   0.0000   0.1888
   2.500   0.3803   0.00698   0.00192   0.0192  0.2686  0.9500  -1.2567   0.0000   0.0000   0.0000   0.1931
   3.000   0.4348   0.00716   0.00206   0.0200  0.2614  0.9689  -1.3380   0.0000   0.0000   0.0000   0.1971
   3.500   0.4969   0.00734   0.00220   0.0191  0.2542  0.9814  -1.4293   0.0000   0.0000   0.0000   0.2044
   4.000   0.5630   0.00760   0.00238   0.0170  0.2455  0.9864  -1.5252   0.0000   0.0000   0.0000   0.2122
   4.500   0.6284   0.00778   0.00254   0.0151  0.2407  0.9892  -1.6286   0.0000   0.0000   0.0000   0.2180
   5.000   0.6933   0.00803   0.00273   0.0131  0.2331  0.9918  -1.7338   0.0000   0.0000   0.0000   0.2226
   5.500   0.7578   0.00828   0.00297   0.0112  0.2270  0.9943  -1.8400   0.0000   0.0000   0.0000   0.2263
   6.000   0.8222   0.00851   0.00319   0.0093  0.2220  0.9967  -1.9536   0.0000   0.0000   0.0000   0.2292
   6.500   0.8864   0.00883   0.00348   0.0073  0.2146  0.9993  -2.0710   0.0000   0.0000   0.0000   0.2317
   7.000   0.9397   0.00912   0.00378   0.0076  0.2097  1.0000  -2.1779   0.0000   0.0000   0.0000   0.2313
   7.500   0.9897   0.00940   0.00410   0.0086  0.2050  1.0000  -2.2867   0.0000   0.0000   0.0000   0.2301
   8.000   1.0400   0.00979   0.00447   0.0094  0.1980  1.0000  -2.4015   0.0000   0.0000   0.0000   0.2291
   8.500   1.0919   0.01015   0.00486   0.0098  0.1931  1.0000  -2.5250   0.0000   0.0000   0.0000   0.2284
   9.000   1.1448   0.01053   0.00527   0.0100  0.1869  1.0000  -2.6603   0.0000   0.0000   0.0000   0.2279
   9.500   1.1973   0.01105   0.00579   0.0101  0.1789  1.0000  -2.8065   0.0000   0.0000   0.0000   0.2275
  10.000   1.2507   0.01145   0.00627   0.0101  0.1738  1.0000  -2.9692   0.0000   0.0000   0.0000   0.2271
  10.500   1.3029   0.01204   0.00686   0.0100  0.1657  1.0000  -3.1453   0.0000   0.0000   0.0000   0.2266
  11.000   1.3550   0.01260   0.00747   0.0099  0.1571  1.0000  -3.3386   0.0000   0.0000   0.0000   0.2261
  11.500   1.4050   0.01340   0.00824   0.0099  0.1435  1.0000  -3.5477   0.0000   0.0000   0.0000   0.2256
  12.000   1.4534   0.01433   0.00915   0.0099  0.1301  1.0000  -3.9155   0.0000   0.0000   0.0000   0.2249
  12.500   1.4998   0.01539   0.01021   0.0100  0.1175  1.0000  -4.4739   0.0000   0.0000   0.0000   0.2241
  13.000   1.5423   0.01674   0.01154   0.0103  0.1018  1.0000  -5.0380   0.0000   0.0000   0.0000   0.2232
  13.500   1.5742   0.01892   0.01361   0.0110  0.0796  1.0000  -5.5566   0.0000   0.0000   0.0000   0.2219
  14.000   1.5905   0.02183   0.01650   0.0123  0.0616  1.0000  -5.9885   0.0000   0.0000   0.0000   0.2201
  14.500   1.5900   0.02663   0.02139   0.0115  0.0518  1.0000  -6.3001   0.0000   0.0000   0.0000   0.2195
  15.000   1.5806   0.03361   0.02849   0.0086  0.0447  1.0000  -6.5390   0.0000   0.0000   0.0000   0.2201


