xflr5 v6.62

 Calculated polar for: MH60-IL

 1 1 Reynolds number fixed          Mach number fixed         

 xtrf =   1.000 (top)        1.000 (bottom)
 Mach =   0.000     Re =     0.200 e 6     Ncrit =   6.000

  alpha     CL        CD       CDp       Cm    Top Xtr Bot Xtr   Cpmin    Chinge    XCp    
 ------- -------- --------- --------- -------- ------- ------- -------- --------- ---------
  -5.000  -0.4134   0.02231   0.01399   0.0044  0.6156  0.0172  -3.4602   0.0000   0.0000   0.0000   0.2541
  -4.500  -0.3616   0.01978   0.01112   0.0057  0.5886  0.0174  -3.2346   0.0000   0.0000   0.0000   0.2591
  -4.000  -0.3100   0.01783   0.00895   0.0068  0.5625  0.0181  -2.9759   0.0000   0.0000   0.0000   0.2654
  -3.500  -0.2577   0.01654   0.00747   0.0079  0.5384  0.0195  -2.6947   0.0000   0.0000   0.0000   0.2740
  -3.000  -0.2040   0.01557   0.00625   0.0088  0.5153  0.0224  -2.4389   0.0000   0.0000   0.0000   0.2864
  -2.500  -0.1504   0.01452   0.00509   0.0098  0.4939  0.0391  -2.2281   0.0000   0.0000   0.0000   0.3077
  -2.000  -0.1005   0.01304   0.00447   0.0105  0.4732  0.2255  -1.9388   0.0000   0.0000   0.0000   0.3465
  -1.500  -0.0568   0.01136   0.00412   0.0125  0.4550  0.5557  -1.6206   0.0000   0.0000   0.0000   0.4607
  -1.000  -0.0101   0.01074   0.00444   0.0168  0.4378  0.8677  -1.2927   0.0000   0.0000   0.0000   1.8879
  -0.500   0.0523   0.01104   0.00447   0.0170  0.4191  0.9266  -0.9406   0.0000   0.0000   0.0000  -0.0773
   0.000   0.1230   0.01132   0.00444   0.0150  0.4017  0.9577  -0.8969   0.0000   0.0000   0.0000   0.1245
   0.500   0.2127   0.01158   0.00437   0.0088  0.3842  0.9792  -0.9893   0.0000   0.0000   0.0000   0.2046
   1.000   0.3163   0.01171   0.00420  -0.0007  0.3661  1.0000  -1.0979   0.0000   0.0000   0.0000   0.2478
   1.500   0.3677   0.01190   0.00419   0.0000  0.3541  1.0000  -1.1692   0.0000   0.0000   0.0000   0.2451
   2.000   0.4189   0.01211   0.00429   0.0008  0.3424  1.0000  -1.2408   0.0000   0.0000   0.0000   0.2429
   2.500   0.4696   0.01241   0.00441   0.0016  0.3318  1.0000  -1.3168   0.0000   0.0000   0.0000   0.2408
   3.000   0.5202   0.01270   0.00463   0.0025  0.3219  1.0000  -1.3952   0.0000   0.0000   0.0000   0.2389
   3.500   0.5701   0.01309   0.00490   0.0035  0.3131  1.0000  -1.4741   0.0000   0.0000   0.0000   0.2372
   4.000   0.6200   0.01344   0.00523   0.0045  0.3036  1.0000  -1.5574   0.0000   0.0000   0.0000   0.2356
   4.500   0.6693   0.01393   0.00561   0.0055  0.2961  1.0000  -1.6438   0.0000   0.0000   0.0000   0.2340
   5.000   0.7188   0.01436   0.00607   0.0066  0.2880  1.0000  -1.7311   0.0000   0.0000   0.0000   0.2327
   5.500   0.7676   0.01492   0.00653   0.0076  0.2805  1.0000  -1.8204   0.0000   0.0000   0.0000   0.2313
   6.000   0.8172   0.01543   0.00715   0.0086  0.2733  1.0000  -1.9162   0.0000   0.0000   0.0000   0.2302
   6.500   0.8665   0.01599   0.00773   0.0095  0.2664  1.0000  -2.0144   0.0000   0.0000   0.0000   0.2292
   7.000   0.9161   0.01665   0.00843   0.0102  0.2594  1.0000  -2.1132   0.0000   0.0000   0.0000   0.2284
   7.500   0.9661   0.01729   0.00918   0.0108  0.2526  1.0000  -2.2208   0.0000   0.0000   0.0000   0.2277
   8.000   1.0159   0.01805   0.00991   0.0114  0.2464  1.0000  -2.3318   0.0000   0.0000   0.0000   0.2270
   8.500   1.0656   0.01880   0.01088   0.0118  0.2394  1.0000  -2.4499   0.0000   0.0000   0.0000   0.2265
   9.000   1.1150   0.01957   0.01178   0.0122  0.2330  1.0000  -2.5767   0.0000   0.0000   0.0000   0.2259
   9.500   1.1635   0.02051   0.01278   0.0126  0.2269  1.0000  -2.7118   0.0000   0.0000   0.0000   0.2253
  10.000   1.2109   0.02143   0.01397   0.0129  0.2199  1.0000  -2.8563   0.0000   0.0000   0.0000   0.2246
  10.500   1.2578   0.02234   0.01495   0.0133  0.2134  1.0000  -3.0168   0.0000   0.0000   0.0000   0.2239
  11.000   1.3020   0.02351   0.01639   0.0138  0.2066  1.0000  -3.1833   0.0000   0.0000   0.0000   0.2231
  11.500   1.3447   0.02458   0.01768   0.0143  0.1994  1.0000  -3.3628   0.0000   0.0000   0.0000   0.2222
  12.000   1.3845   0.02592   0.01917   0.0149  0.1927  1.0000  -3.5505   0.0000   0.0000   0.0000   0.2211
  12.500   1.4188   0.02743   0.02099   0.0156  0.1851  1.0000  -3.8198   0.0000   0.0000   0.0000   0.2199
  13.000   1.4489   0.02908   0.02273   0.0166  0.1783  1.0000  -4.2679   0.0000   0.0000   0.0000   0.2185
  13.500   1.4611   0.03191   0.02595   0.0174  0.1713  1.0000  -4.6162   0.0000   0.0000   0.0000   0.2171
  14.000   1.4737   0.03519   0.02933   0.0170  0.1645  1.0000  -4.9785   0.0000   0.0000   0.0000   0.2164
  14.500   1.4736   0.04042   0.03491   0.0151  0.1577  1.0000  -5.2528   0.0000   0.0000   0.0000   0.2165
  15.000   1.4692   0.04644   0.04113   0.0125  0.1506  1.0000  -5.5018   0.0000   0.0000   0.0000   0.2170


