xflr5 v6.62

 Calculated polar for: MH60-IL

 1 1 Reynolds number fixed          Mach number fixed         

 xtrf =   1.000 (top)        1.000 (bottom)
 Mach =   0.000     Re =     0.030 e 6     Ncrit =   6.000

  alpha     CL        CD       CDp       Cm    Top Xtr Bot Xtr   Cpmin    Chinge    XCp    
 ------- -------- --------- --------- -------- ------- ------- -------- --------- ---------
  -5.000  -0.3670   0.04202   0.03276  -0.0230  0.9663  0.0921  -2.5469   0.0000   0.0000   0.0000   0.1804
  -4.500  -0.2623   0.03648   0.02617  -0.0320  0.9087  0.1135  -2.4416   0.0000   0.0000   0.0000   0.1195
  -4.000  -0.1852   0.03305   0.02234  -0.0343  0.8555  0.1605  -2.3382   0.0000   0.0000   0.0000   0.0539
  -3.500  -0.1415   0.02992   0.01993  -0.0311  0.8107  0.2921  -2.2687   0.0000   0.0000   0.0000   0.0173
  -3.000  -0.0765   0.02767   0.02031  -0.0218  0.7710  0.8423  -1.9875   0.0000   0.0000   0.0000  -0.0565
  -2.500   0.0719   0.02763   0.01833  -0.0350  0.7230  1.0000  -1.4060   0.0000   0.0000   0.0000   0.7541
  -2.000   0.1098   0.02808   0.01803  -0.0335  0.6890  1.0000  -1.1613   0.0000   0.0000   0.0000   0.5645
  -1.500   0.1503   0.02882   0.01810  -0.0322  0.6577  1.0000  -0.9149   0.0000   0.0000   0.0000   0.4692
  -1.000   0.1900   0.02964   0.01832  -0.0299  0.6316  1.0000  -0.8114   0.0000   0.0000   0.0000   0.4100
  -0.500   0.2323   0.03085   0.01909  -0.0290  0.6051  1.0000  -0.8553   0.0000   0.0000   0.0000   0.3758
   0.000   0.2734   0.03217   0.01998  -0.0275  0.5815  1.0000  -0.9010   0.0000   0.0000   0.0000   0.3506
   0.500   0.3140   0.03369   0.02116  -0.0261  0.5606  1.0000  -0.9485   0.0000   0.0000   0.0000   0.3321
   1.000   0.3541   0.03539   0.02257  -0.0247  0.5407  1.0000  -0.9948   0.0000   0.0000   0.0000   0.3180
   1.500   0.3927   0.03756   0.02451  -0.0237  0.5227  1.0000  -1.0389   0.0000   0.0000   0.0000   0.3081
   2.000   0.4285   0.03998   0.02675  -0.0227  0.5051  1.0000  -1.0824   0.0000   0.0000   0.0000   0.3001
   2.500   0.4609   0.04294   0.02959  -0.0219  0.4892  1.0000  -1.1185   0.0000   0.0000   0.0000   0.2942
   3.000   0.4912   0.04611   0.03264  -0.0211  0.4748  1.0000  -1.1541   0.0000   0.0000   0.0000   0.2890
   3.500   0.5286   0.04834   0.03467  -0.0189  0.4620  1.0000  -1.2096   0.0000   0.0000   0.0000   0.2814
   4.000   0.5403   0.05398   0.04037  -0.0203  0.4478  1.0000  -1.2082   0.0000   0.0000   0.0000   0.2827
   4.500   0.5520   0.05929   0.04565  -0.0210  0.4341  1.0000  -1.2102   0.0000   0.0000   0.0000   0.2827
   5.000   0.5858   0.06267   0.04897  -0.0199  0.4247  1.0000  -1.2598   0.0000   0.0000   0.0000   0.2781
   5.500   0.5715   0.07059   0.05689  -0.0230  0.4130  1.0000  -1.2119   0.0000   0.0000   0.0000   0.2839
   6.000   0.5837   0.07568   0.06191  -0.0230  0.4030  1.0000  -1.2183   0.0000   0.0000   0.0000   0.2825
   6.500   0.5793   0.08234   0.06855  -0.0243  0.3966  1.0000  -1.1945   0.0000   0.0000   0.0000   0.2847
   7.000   0.6066   0.08691   0.07310  -0.0241  0.3871  1.0000  -1.2317   0.0000   0.0000   0.0000   0.2818
   7.500   0.5972   0.09391   0.08010  -0.0261  0.3809  1.0000  -1.1924   0.0000   0.0000   0.0000   0.2852
   8.000   0.6050   0.10021   0.08644  -0.0275  0.3766  1.0000  -1.1900   0.0000   0.0000   0.0000   0.2866
   8.500   0.6245   0.10567   0.09199  -0.0280  0.3674  1.0000  -1.2131   0.0000   0.0000   0.0000   0.2853
   9.000   0.6260   0.11260   0.09898  -0.0301  0.3661  1.0000  -1.1955   0.0000   0.0000   0.0000   0.2881
   9.500   0.6311   0.11946   0.10592  -0.0321  0.3657  1.0000  -1.1857   0.0000   0.0000   0.0000   0.2904
  10.000   0.6358   0.12577   0.11231  -0.0338  0.3616  1.0000  -1.1753   0.0000   0.0000   0.0000   0.2921
  11.500   0.6418   0.14971   0.13666  -0.0446  0.4210  1.0000  -1.0973   0.0000   0.0000   0.0000   0.3071
  12.000   0.6616   0.15605   0.14319  -0.0459  0.4094  1.0000  -1.1275   0.0000   0.0000   0.0000   0.3063
  12.500   0.6695   0.16104   0.14828  -0.0471  0.3954  1.0000  -1.1332   0.0000   0.0000   0.0000   0.3066
  13.000   0.6890   0.16811   0.15548  -0.0486  0.3857  1.0000  -1.1627   0.0000   0.0000   0.0000   0.3063
  13.500   0.7063   0.17427   0.16179  -0.0501  0.3727  1.0000  -1.1908   0.0000   0.0000   0.0000   0.3060
  14.000   0.7147   0.17924   0.16692  -0.0519  0.3583  1.0000  -1.1969   0.0000   0.0000   0.0000   0.3070
  14.500   0.7348   0.18702   0.17486  -0.0539  0.3501  1.0000  -1.2332   0.0000   0.0000   0.0000   0.3070
  15.000   0.7498   0.19284   0.18085  -0.0558  0.3366  1.0000  -1.2566   0.0000   0.0000   0.0000   0.3074


