xflr5 v6.62

 Calculated polar for: MH60-IL

 1 1 Reynolds number fixed          Mach number fixed         

 xtrf =   1.000 (top)        1.000 (bottom)
 Mach =   0.000     Re =     0.500 e 6     Ncrit =   6.000

  alpha     CL        CD       CDp       Cm    Top Xtr Bot Xtr   Cpmin    Chinge    XCp    
 ------- -------- --------- --------- -------- ------- ------- -------- --------- ---------
  -5.000  -0.4314   0.01631   0.00898   0.0082  0.5289  0.0103  -3.9044   0.0000   0.0000   0.0000   0.2625
  -4.500  -0.3780   0.01496   0.00739   0.0091  0.5052  0.0105  -3.5620   0.0000   0.0000   0.0000   0.2677
  -4.000  -0.3244   0.01380   0.00602   0.0099  0.4845  0.0106  -3.2322   0.0000   0.0000   0.0000   0.2743
  -3.500  -0.2700   0.01292   0.00495   0.0107  0.4633  0.0109  -2.8970   0.0000   0.0000   0.0000   0.2832
  -3.000  -0.2148   0.01224   0.00411   0.0113  0.4441  0.0114  -2.5631   0.0000   0.0000   0.0000   0.2960
  -2.500  -0.1587   0.01176   0.00346   0.0117  0.4264  0.0123  -2.2367   0.0000   0.0000   0.0000   0.3172
  -2.000  -0.1029   0.01123   0.00287   0.0122  0.4083  0.0239  -1.9625   0.0000   0.0000   0.0000   0.3615
  -1.500  -0.0485   0.01050   0.00250   0.0126  0.3918  0.1240  -1.6310   0.0000   0.0000   0.0000   0.5004
  -1.000   0.0052   0.00974   0.00229   0.0129  0.3773  0.2852  -1.2850   0.0000   0.0000   0.0000  -2.2001
  -0.500   0.0496   0.00809   0.00212   0.0148  0.3639  0.6910  -0.9834   0.0000   0.0000   0.0000  -0.0521
   0.000   0.0981   0.00778   0.00226   0.0174  0.3499  0.8616  -0.8853   0.0000   0.0000   0.0000   0.0675
   0.500   0.1522   0.00793   0.00234   0.0187  0.3371  0.9075  -0.9525   0.0000   0.0000   0.0000   0.1222
   1.000   0.2072   0.00810   0.00242   0.0196  0.3259  0.9344  -1.0209   0.0000   0.0000   0.0000   0.1499
   1.500   0.2643   0.00832   0.00252   0.0200  0.3140  0.9563  -1.0961   0.0000   0.0000   0.0000   0.1685
   2.000   0.3343   0.00858   0.00265   0.0177  0.3029  0.9765  -1.1839   0.0000   0.0000   0.0000   0.1909
   2.500   0.4150   0.00882   0.00279   0.0129  0.2927  0.9855  -1.2817   0.0000   0.0000   0.0000   0.2128
   3.000   0.4887   0.00907   0.00290   0.0092  0.2818  0.9914  -1.3819   0.0000   0.0000   0.0000   0.2246
   3.500   0.5585   0.00925   0.00303   0.0063  0.2742  0.9956  -1.4800   0.0000   0.0000   0.0000   0.2318
   4.000   0.6258   0.00951   0.00320   0.0038  0.2655  0.9993  -1.5801   0.0000   0.0000   0.0000   0.2366
   4.500   0.6800   0.00974   0.00341   0.0040  0.2588  1.0000  -1.6733   0.0000   0.0000   0.0000   0.2363
   5.000   0.7303   0.01001   0.00366   0.0050  0.2524  1.0000  -1.7638   0.0000   0.0000   0.0000   0.2349
   5.500   0.7797   0.01039   0.00400   0.0060  0.2454  1.0000  -1.8545   0.0000   0.0000   0.0000   0.2334
   6.000   0.8297   0.01066   0.00430   0.0071  0.2398  1.0000  -1.9536   0.0000   0.0000   0.0000   0.2321
   6.500   0.8793   0.01102   0.00468   0.0081  0.2339  1.0000  -2.0541   0.0000   0.0000   0.0000   0.2308
   7.000   0.9287   0.01148   0.00512   0.0090  0.2278  1.0000  -2.1554   0.0000   0.0000   0.0000   0.2297
   7.500   0.9796   0.01183   0.00555   0.0097  0.2222  1.0000  -2.2650   0.0000   0.0000   0.0000   0.2288
   8.000   1.0307   0.01228   0.00602   0.0102  0.2163  1.0000  -2.3797   0.0000   0.0000   0.0000   0.2281
   8.500   1.0820   0.01282   0.00659   0.0106  0.2105  1.0000  -2.5016   0.0000   0.0000   0.0000   0.2276
   9.000   1.1343   0.01326   0.00714   0.0108  0.2045  1.0000  -2.6349   0.0000   0.0000   0.0000   0.2271
   9.500   1.1856   0.01386   0.00777   0.0110  0.1979  1.0000  -2.7779   0.0000   0.0000   0.0000   0.2267
  10.000   1.2370   0.01445   0.00847   0.0111  0.1919  1.0000  -2.9341   0.0000   0.0000   0.0000   0.2262
  10.500   1.2879   0.01506   0.00917   0.0111  0.1849  1.0000  -3.1053   0.0000   0.0000   0.0000   0.2257
  11.000   1.3370   0.01585   0.01003   0.0113  0.1778  1.0000  -3.2903   0.0000   0.0000   0.0000   0.2251
  11.500   1.3864   0.01656   0.01088   0.0113  0.1707  1.0000  -3.4934   0.0000   0.0000   0.0000   0.2244
  12.000   1.4321   0.01758   0.01195   0.0116  0.1627  1.0000  -3.7425   0.0000   0.0000   0.0000   0.2236
  12.500   1.4781   0.01848   0.01302   0.0118  0.1552  1.0000  -4.2856   0.0000   0.0000   0.0000   0.2228
  13.000   1.5186   0.01977   0.01439   0.0121  0.1446  1.0000  -4.8249   0.0000   0.0000   0.0000   0.2218
  13.500   1.5518   0.02153   0.01620   0.0127  0.1313  1.0000  -5.3416   0.0000   0.0000   0.0000   0.2207
  14.000   1.5665   0.02447   0.01921   0.0133  0.1174  1.0000  -5.7513   0.0000   0.0000   0.0000   0.2193
  14.500   1.5688   0.02951   0.02434   0.0117  0.1040  1.0000  -6.0732   0.0000   0.0000   0.0000   0.2192
  15.000   1.5621   0.03615   0.03111   0.0090  0.0932  1.0000  -6.3276   0.0000   0.0000   0.0000   0.2197


