xflr5 v6.62

 Calculated polar for: MH60-IL

 1 1 Reynolds number fixed          Mach number fixed         

 xtrf =   1.000 (top)        1.000 (bottom)
 Mach =   0.000     Re =     0.130 e 6     Ncrit =   6.000

  alpha     CL        CD       CDp       Cm    Top Xtr Bot Xtr   Cpmin    Chinge    XCp    
 ------- -------- --------- --------- -------- ------- ------- -------- --------- ---------
  -5.000  -0.4017   0.02539   0.01670   0.0011  0.6659  0.0230  -3.2573   0.0000   0.0000   0.0000   0.2459
  -4.500  -0.3512   0.02246   0.01338   0.0026  0.6353  0.0237  -3.0572   0.0000   0.0000   0.0000   0.2505
  -4.000  -0.3000   0.02046   0.01114   0.0040  0.6073  0.0251  -2.8197   0.0000   0.0000   0.0000   0.2564
  -3.500  -0.2485   0.01891   0.00935   0.0054  0.5804  0.0281  -2.6008   0.0000   0.0000   0.0000   0.2646
  -3.000  -0.1971   0.01759   0.00774   0.0068  0.5563  0.0355  -2.3987   0.0000   0.0000   0.0000   0.2771
  -2.500  -0.1478   0.01573   0.00646   0.0081  0.5330  0.1453  -2.2188   0.0000   0.0000   0.0000   0.2968
  -2.000  -0.1031   0.01395   0.00596   0.0098  0.5113  0.4368  -1.9184   0.0000   0.0000   0.0000   0.3360
  -1.500  -0.0527   0.01290   0.00629   0.0140  0.4903  0.8516  -1.5724   0.0000   0.0000   0.0000   0.5050
  -1.000   0.0152   0.01331   0.00629   0.0137  0.4685  0.9330  -1.1906   0.0000   0.0000   0.0000  -0.6330
  -0.500   0.1055   0.01361   0.00609   0.0080  0.4471  0.9695  -0.8516   0.0000   0.0000   0.0000   0.1729
   0.000   0.2152   0.01369   0.00565  -0.0024  0.4250  0.9993  -0.9573   0.0000   0.0000   0.0000   0.2583
   0.500   0.2676   0.01383   0.00553  -0.0020  0.4092  1.0000  -1.0214   0.0000   0.0000   0.0000   0.2539
   1.000   0.3184   0.01404   0.00553  -0.0012  0.3945  1.0000  -1.0897   0.0000   0.0000   0.0000   0.2498
   1.500   0.3688   0.01432   0.00559  -0.0004  0.3809  1.0000  -1.1590   0.0000   0.0000   0.0000   0.2464
   2.000   0.4188   0.01467   0.00570   0.0006  0.3695  1.0000  -1.2291   0.0000   0.0000   0.0000   0.2435
   2.500   0.4690   0.01504   0.00598   0.0015  0.3573  1.0000  -1.3035   0.0000   0.0000   0.0000   0.2412
   3.000   0.5187   0.01549   0.00630   0.0025  0.3464  1.0000  -1.3798   0.0000   0.0000   0.0000   0.2391
   3.500   0.5680   0.01596   0.00665   0.0036  0.3366  1.0000  -1.4569   0.0000   0.0000   0.0000   0.2372
   4.000   0.6173   0.01653   0.00722   0.0046  0.3271  1.0000  -1.5383   0.0000   0.0000   0.0000   0.2356
   4.500   0.6663   0.01707   0.00763   0.0057  0.3181  1.0000  -1.6237   0.0000   0.0000   0.0000   0.2340
   5.000   0.7152   0.01776   0.00837   0.0066  0.3095  1.0000  -1.7074   0.0000   0.0000   0.0000   0.2327
   5.500   0.7640   0.01840   0.00900   0.0077  0.3015  1.0000  -1.7961   0.0000   0.0000   0.0000   0.2314
   6.000   0.8127   0.01919   0.00983   0.0086  0.2933  1.0000  -1.8893   0.0000   0.0000   0.0000   0.2303
   6.500   0.8617   0.01996   0.01069   0.0094  0.2856  1.0000  -1.9840   0.0000   0.0000   0.0000   0.2294
   7.000   0.9109   0.02084   0.01155   0.0101  0.2789  1.0000  -2.0821   0.0000   0.0000   0.0000   0.2286
   7.500   0.9591   0.02177   0.01270   0.0107  0.2704  1.0000  -2.1849   0.0000   0.0000   0.0000   0.2279
   8.000   1.0087   0.02264   0.01357   0.0113  0.2642  1.0000  -2.2943   0.0000   0.0000   0.0000   0.2272
   8.500   1.0552   0.02392   0.01514   0.0117  0.2568  1.0000  -2.4049   0.0000   0.0000   0.0000   0.2266
   9.000   1.1029   0.02488   0.01624   0.0123  0.2495  1.0000  -2.5288   0.0000   0.0000   0.0000   0.2259
   9.500   1.1494   0.02619   0.01769   0.0127  0.2435  1.0000  -2.6575   0.0000   0.0000   0.0000   0.2252
  10.000   1.1918   0.02767   0.01951   0.0132  0.2356  1.0000  -2.7885   0.0000   0.0000   0.0000   0.2244
  10.500   1.2391   0.02865   0.02053   0.0137  0.2295  1.0000  -2.9477   0.0000   0.0000   0.0000   0.2236
  11.000   1.2737   0.03075   0.02310   0.0144  0.2219  1.0000  -3.0852   0.0000   0.0000   0.0000   0.2226
  11.500   1.3140   0.03204   0.02457   0.0151  0.2149  1.0000  -3.2530   0.0000   0.0000   0.0000   0.2216
  12.000   1.3453   0.03410   0.02692   0.0159  0.2081  1.0000  -3.4103   0.0000   0.0000   0.0000   0.2203
  12.500   1.3665   0.03654   0.02970   0.0169  0.2007  1.0000  -3.5569   0.0000   0.0000   0.0000   0.2189
  13.000   1.3989   0.03793   0.03116   0.0180  0.1944  1.0000  -3.8715   0.0000   0.0000   0.0000   0.2174
  13.500   1.3636   0.04515   0.03892   0.0168  0.1880  1.0000  -3.8982   0.0000   0.0000   0.0000   0.2169
  14.000   1.3744   0.04889   0.04280   0.0157  0.1814  1.0000  -4.2184   0.0000   0.0000   0.0000   0.2166
  14.500   1.0491   0.10513   0.09939  -0.0146  0.1625  1.0000  -2.7470   0.0000   0.0000   0.0000   0.2416
  15.000   1.1545   0.09309   0.08754  -0.0075  0.1636  1.0000  -3.2416   0.0000   0.0000   0.0000   0.2326


