xflr5 v6.62

 Calculated polar for: MH60-IL

 1 1 Reynolds number fixed          Mach number fixed         

 xtrf =   1.000 (top)        1.000 (bottom)
 Mach =   0.000     Re =     0.160 e 6     Ncrit =   6.000

  alpha     CL        CD       CDp       Cm    Top Xtr Bot Xtr   Cpmin    Chinge    XCp    
 ------- -------- --------- --------- -------- ------- ------- -------- --------- ---------
  -5.000  -0.4092   0.02369   0.01539   0.0026  0.6403  0.0203  -3.2983   0.0000   0.0000   0.0000   0.2498
  -4.500  -0.3574   0.02121   0.01241   0.0042  0.6122  0.0206  -3.1027   0.0000   0.0000   0.0000   0.2550
  -4.000  -0.3048   0.01927   0.01017   0.0055  0.5846  0.0215  -2.8810   0.0000   0.0000   0.0000   0.2612
  -3.500  -0.2530   0.01776   0.00840   0.0068  0.5593  0.0232  -2.6553   0.0000   0.0000   0.0000   0.2700
  -3.000  -0.2007   0.01658   0.00697   0.0079  0.5359  0.0281  -2.4140   0.0000   0.0000   0.0000   0.2822
  -2.500  -0.1490   0.01511   0.00569   0.0090  0.5133  0.0781  -2.2273   0.0000   0.0000   0.0000   0.3029
  -2.000  -0.1017   0.01345   0.00516   0.0100  0.4925  0.3305  -1.9289   0.0000   0.0000   0.0000   0.3404
  -1.500  -0.0628   0.01170   0.00504   0.0144  0.4732  0.7324  -1.6227   0.0000   0.0000   0.0000   0.4696
  -1.000  -0.0009   0.01197   0.00534   0.0160  0.4535  0.9046  -1.2516   0.0000   0.0000   0.0000  17.1884
  -0.500   0.0714   0.01229   0.00529   0.0141  0.4338  0.9492  -0.8764   0.0000   0.0000   0.0000   0.0519
   0.000   0.1597   0.01254   0.00514   0.0083  0.4135  0.9758  -0.9205   0.0000   0.0000   0.0000   0.1950
   0.500   0.2660   0.01265   0.00487  -0.0016  0.3944  1.0000  -1.0251   0.0000   0.0000   0.0000   0.2524
   1.000   0.3172   0.01282   0.00481  -0.0009  0.3801  1.0000  -1.0941   0.0000   0.0000   0.0000   0.2486
   1.500   0.3680   0.01306   0.00482  -0.0001  0.3677  1.0000  -1.1645   0.0000   0.0000   0.0000   0.2455
   2.000   0.4187   0.01332   0.00494   0.0007  0.3558  1.0000  -1.2352   0.0000   0.0000   0.0000   0.2430
   2.500   0.4692   0.01365   0.00514   0.0016  0.3443  1.0000  -1.3104   0.0000   0.0000   0.0000   0.2409
   3.000   0.5190   0.01405   0.00533   0.0026  0.3344  1.0000  -1.3883   0.0000   0.0000   0.0000   0.2388
   3.500   0.5690   0.01444   0.00573   0.0036  0.3246  1.0000  -1.4656   0.0000   0.0000   0.0000   0.2371
   4.000   0.6181   0.01494   0.00606   0.0047  0.3159  1.0000  -1.5488   0.0000   0.0000   0.0000   0.2353
   4.500   0.6677   0.01540   0.00658   0.0057  0.3065  1.0000  -1.6339   0.0000   0.0000   0.0000   0.2339
   5.000   0.7167   0.01597   0.00702   0.0067  0.2992  1.0000  -1.7208   0.0000   0.0000   0.0000   0.2325
   5.500   0.7658   0.01655   0.00772   0.0077  0.2907  1.0000  -1.8084   0.0000   0.0000   0.0000   0.2313
   6.000   0.8149   0.01714   0.00826   0.0087  0.2832  1.0000  -1.9046   0.0000   0.0000   0.0000   0.2301
   6.500   0.8641   0.01789   0.00910   0.0095  0.2764  1.0000  -2.0000   0.0000   0.0000   0.0000   0.2292
   7.000   0.9135   0.01856   0.00985   0.0102  0.2685  1.0000  -2.0979   0.0000   0.0000   0.0000   0.2284
   7.500   0.9631   0.01937   0.01062   0.0109  0.2621  1.0000  -2.2063   0.0000   0.0000   0.0000   0.2277
   8.000   1.0121   0.02025   0.01176   0.0114  0.2550  1.0000  -2.3120   0.0000   0.0000   0.0000   0.2271
   8.500   1.0614   0.02103   0.01258   0.0119  0.2482  1.0000  -2.4321   0.0000   0.0000   0.0000   0.2264
   9.000   1.1094   0.02209   0.01384   0.0123  0.2415  1.0000  -2.5547   0.0000   0.0000   0.0000   0.2258
   9.500   1.1567   0.02311   0.01506   0.0127  0.2346  1.0000  -2.6859   0.0000   0.0000   0.0000   0.2252
  10.000   1.2048   0.02409   0.01604   0.0132  0.2283  1.0000  -2.8335   0.0000   0.0000   0.0000   0.2245
  10.500   1.2475   0.02545   0.01781   0.0136  0.2212  1.0000  -2.9798   0.0000   0.0000   0.0000   0.2237
  11.000   1.2919   0.02646   0.01895   0.0142  0.2143  1.0000  -3.1475   0.0000   0.0000   0.0000   0.2228
  11.500   1.3314   0.02801   0.02079   0.0148  0.2075  1.0000  -3.3144   0.0000   0.0000   0.0000   0.2218
  12.000   1.3679   0.02945   0.02249   0.0155  0.2000  1.0000  -3.4902   0.0000   0.0000   0.0000   0.2207
  12.500   1.4030   0.03097   0.02415   0.0163  0.1935  1.0000  -3.6904   0.0000   0.0000   0.0000   0.2194
  13.000   1.4199   0.03344   0.02703   0.0176  0.1861  1.0000  -4.0437   0.0000   0.0000   0.0000   0.2177
  13.500   1.4420   0.03543   0.02907   0.0184  0.1796  1.0000  -4.4524   0.0000   0.0000   0.0000   0.2163
  14.000   1.4324   0.04086   0.03495   0.0171  0.1731  1.0000  -4.6519   0.0000   0.0000   0.0000   0.2160
  14.500   1.4317   0.04602   0.04032   0.0151  0.1663  1.0000  -4.9147   0.0000   0.0000   0.0000   0.2162
  15.000   1.4160   0.05347   0.04801   0.0119  0.1599  1.0000  -5.0704   0.0000   0.0000   0.0000   0.2172


