xflr5 v6.62

 Calculated polar for: MH60-IL

 1 1 Reynolds number fixed          Mach number fixed         

 xtrf =   1.000 (top)        1.000 (bottom)
 Mach =   0.000     Re =     0.060 e 6     Ncrit =   6.000

  alpha     CL        CD       CDp       Cm    Top Xtr Bot Xtr   Cpmin    Chinge    XCp    
 ------- -------- --------- --------- -------- ------- ------- -------- --------- ---------
  -5.000  -0.3591   0.03194   0.02289  -0.0130  0.7834  0.0434  -2.8286   0.0000   0.0000   0.0000   0.2065
  -4.500  -0.3127   0.02903   0.01918  -0.0098  0.7445  0.0481  -2.7270   0.0000   0.0000   0.0000   0.2110
  -4.000  -0.2647   0.02684   0.01668  -0.0074  0.7086  0.0583  -2.5496   0.0000   0.0000   0.0000   0.2141
  -3.500  -0.2155   0.02453   0.01423  -0.0049  0.6760  0.0736  -2.4289   0.0000   0.0000   0.0000   0.2189
  -3.000  -0.1669   0.02207   0.01222  -0.0028  0.6477  0.1708  -2.3186   0.0000   0.0000   0.0000   0.2243
  -2.500  -0.1322   0.01912   0.01143   0.0015  0.6203  0.5701  -2.1032   0.0000   0.0000   0.0000   0.2515
  -2.000  -0.0410   0.01950   0.01197   0.0022  0.5903  0.9284  -1.6398   0.0000   0.0000   0.0000   0.2811
  -1.500   0.0906   0.01944   0.01087  -0.0109  0.5567  1.0000  -1.0859   0.0000   0.0000   0.0000   0.3761
  -1.000   0.1379   0.01956   0.01045  -0.0100  0.5340  1.0000  -0.8256   0.0000   0.0000   0.0000   0.3245
  -0.500   0.1857   0.01983   0.01029  -0.0091  0.5127  1.0000  -0.8819   0.0000   0.0000   0.0000   0.2987
   0.000   0.2338   0.02020   0.01026  -0.0080  0.4929  1.0000  -0.9389   0.0000   0.0000   0.0000   0.2829
   0.500   0.2819   0.02069   0.01041  -0.0069  0.4754  1.0000  -0.9987   0.0000   0.0000   0.0000   0.2722
   1.000   0.3298   0.02124   0.01065  -0.0057  0.4591  1.0000  -1.0617   0.0000   0.0000   0.0000   0.2642
   1.500   0.3774   0.02184   0.01095  -0.0044  0.4441  1.0000  -1.1254   0.0000   0.0000   0.0000   0.2578
   2.000   0.4255   0.02271   0.01171  -0.0035  0.4289  1.0000  -1.1892   0.0000   0.0000   0.0000   0.2540
   2.500   0.4729   0.02367   0.01256  -0.0026  0.4146  1.0000  -1.2565   0.0000   0.0000   0.0000   0.2507
   3.000   0.5198   0.02463   0.01337  -0.0013  0.4028  1.0000  -1.3250   0.0000   0.0000   0.0000   0.2473
   3.500   0.5665   0.02567   0.01432  -0.0002  0.3911  1.0000  -1.3956   0.0000   0.0000   0.0000   0.2445
   4.000   0.6117   0.02712   0.01587   0.0006  0.3785  1.0000  -1.4657   0.0000   0.0000   0.0000   0.2427
   4.500   0.6587   0.02805   0.01658   0.0022  0.3700  1.0000  -1.5453   0.0000   0.0000   0.0000   0.2399
   5.000   0.7009   0.03015   0.01893   0.0026  0.3578  1.0000  -1.6081   0.0000   0.0000   0.0000   0.2391
   5.500   0.7448   0.03177   0.02064   0.0035  0.3481  1.0000  -1.6868   0.0000   0.0000   0.0000   0.2375
   6.000   0.7861   0.03393   0.02296   0.0041  0.3383  1.0000  -1.7581   0.0000   0.0000   0.0000   0.2365
   6.500   0.8235   0.03662   0.02584   0.0045  0.3286  1.0000  -1.8220   0.0000   0.0000   0.0000   0.2357
   7.000   0.8632   0.03876   0.02815   0.0052  0.3193  1.0000  -1.9025   0.0000   0.0000   0.0000   0.2345
   7.500   0.8783   0.04446   0.03425   0.0042  0.3088  1.0000  -1.9248   0.0000   0.0000   0.0000   0.2352
   8.000   0.9156   0.04663   0.03651   0.0051  0.3008  1.0000  -2.0094   0.0000   0.0000   0.0000   0.2338
   9.000   0.8908   0.06349   0.05380  -0.0001  0.2807  1.0000  -1.9595   0.0000   0.0000   0.0000   0.2382
  10.000   0.7526   0.09894   0.08935  -0.0187  0.2531  1.0000  -1.5701   0.0000   0.0000   0.0000   0.2622
  10.500   0.7899   0.10125   0.09174  -0.0174  0.2468  1.0000  -1.6718   0.0000   0.0000   0.0000   0.2586
  11.000   0.7564   0.11379   0.10436  -0.0234  0.2377  1.0000  -1.5564   0.0000   0.0000   0.0000   0.2672
  11.500   0.7762   0.11892   0.10963  -0.0241  0.2311  1.0000  -1.6045   0.0000   0.0000   0.0000   0.2666
  12.000   0.7682   0.12768   0.11847  -0.0277  0.2222  1.0000  -1.5682   0.0000   0.0000   0.0000   0.2710
  12.500   0.7737   0.13499   0.12590  -0.0301  0.2163  1.0000  -1.5669   0.0000   0.0000   0.0000   0.2733
  13.000   0.7874   0.14100   0.13201  -0.0316  0.2086  1.0000  -1.6047   0.0000   0.0000   0.0000   0.2738
  13.500   0.7838   0.14907   0.14019  -0.0352  0.2009  1.0000  -1.5749   0.0000   0.0000   0.0000   0.2780
  14.500   0.7986   0.16290   0.15429  -0.0406  0.1858  1.0000  -1.5950   0.0000   0.0000   0.0000   0.2826
  15.000   0.8259   0.16788   0.15943  -0.0411  0.1801  1.0000  -1.6848   0.0000   0.0000   0.0000   0.2807


