xflr5 v6.62

 Calculated polar for: MH60-IL

 1 1 Reynolds number fixed          Mach number fixed         

 xtrf =   1.000 (top)        1.000 (bottom)
 Mach =   0.000     Re =     0.080 e 6     Ncrit =   6.000

  alpha     CL        CD       CDp       Cm    Top Xtr Bot Xtr   Cpmin    Chinge    XCp    
 ------- -------- --------- --------- -------- ------- ------- -------- --------- ---------
  -5.000  -0.3812   0.02947   0.02065  -0.0061  0.7332  0.0338  -2.9587   0.0000   0.0000   0.0000   0.2270
  -4.500  -0.3319   0.02643   0.01695  -0.0037  0.6987  0.0355  -2.8352   0.0000   0.0000   0.0000   0.2316
  -4.000  -0.2820   0.02396   0.01405  -0.0014  0.6677  0.0386  -2.6937   0.0000   0.0000   0.0000   0.2376
  -3.500  -0.2327   0.02220   0.01218   0.0003  0.6368  0.0501  -2.4773   0.0000   0.0000   0.0000   0.2434
  -3.000  -0.1841   0.02035   0.01026   0.0025  0.6102  0.0807  -2.3440   0.0000   0.0000   0.0000   0.2551
  -2.500  -0.1384   0.01778   0.00911   0.0041  0.5842  0.3464  -2.1539   0.0000   0.0000   0.0000   0.2707
  -2.000  -0.0833   0.01633   0.00943   0.0086  0.5592  0.8426  -1.8016   0.0000   0.0000   0.0000   0.3416
  -1.500   0.0035   0.01690   0.00932   0.0056  0.5323  0.9490  -1.3601   0.0000   0.0000   0.0000  -1.1697
  -1.000   0.1268   0.01688   0.00851  -0.0067  0.5031  1.0000  -0.8461   0.0000   0.0000   0.0000   0.3042
  -0.500   0.1757   0.01699   0.00817  -0.0058  0.4834  1.0000  -0.8885   0.0000   0.0000   0.0000   0.2826
   0.000   0.2251   0.01721   0.00802  -0.0050  0.4654  1.0000  -0.9481   0.0000   0.0000   0.0000   0.2702
   0.500   0.2745   0.01752   0.00801  -0.0041  0.4480  1.0000  -1.0095   0.0000   0.0000   0.0000   0.2620
   1.000   0.3239   0.01792   0.00815  -0.0031  0.4319  1.0000  -1.0750   0.0000   0.0000   0.0000   0.2561
   1.500   0.3731   0.01841   0.00841  -0.0021  0.4178  1.0000  -1.1406   0.0000   0.0000   0.0000   0.2516
   2.000   0.4217   0.01892   0.00865  -0.0009  0.4048  1.0000  -1.2083   0.0000   0.0000   0.0000   0.2475
   2.500   0.4705   0.01952   0.00912   0.0001  0.3915  1.0000  -1.2804   0.0000   0.0000   0.0000   0.2446
   3.000   0.5192   0.02030   0.00985   0.0010  0.3795  1.0000  -1.3515   0.0000   0.0000   0.0000   0.2423
   3.500   0.5673   0.02096   0.01029   0.0024  0.3694  1.0000  -1.4265   0.0000   0.0000   0.0000   0.2397
   4.000   0.6152   0.02189   0.01131   0.0032  0.3576  1.0000  -1.5038   0.0000   0.0000   0.0000   0.2381
   4.500   0.6628   0.02285   0.01220   0.0043  0.3486  1.0000  -1.5831   0.0000   0.0000   0.0000   0.2363
   5.000   0.7101   0.02383   0.01320   0.0054  0.3382  1.0000  -1.6621   0.0000   0.0000   0.0000   0.2348
   5.500   0.7569   0.02504   0.01451   0.0063  0.3294  1.0000  -1.7457   0.0000   0.0000   0.0000   0.2336
   6.000   0.8037   0.02625   0.01580   0.0071  0.3204  1.0000  -1.8319   0.0000   0.0000   0.0000   0.2325
   6.500   0.8497   0.02763   0.01726   0.0078  0.3118  1.0000  -1.9176   0.0000   0.0000   0.0000   0.2315
   7.000   0.8947   0.02917   0.01903   0.0085  0.3031  1.0000  -2.0065   0.0000   0.0000   0.0000   0.2306
   7.500   0.9407   0.03063   0.02055   0.0092  0.2960  1.0000  -2.1032   0.0000   0.0000   0.0000   0.2297
   8.000   0.9799   0.03284   0.02313   0.0096  0.2863  1.0000  -2.1884   0.0000   0.0000   0.0000   0.2290
   8.500   1.0298   0.03381   0.02403   0.0105  0.2807  1.0000  -2.3077   0.0000   0.0000   0.0000   0.2280
   9.000   1.0509   0.03809   0.02896   0.0105  0.2706  1.0000  -2.3658   0.0000   0.0000   0.0000   0.2276
   9.500   1.0997   0.03887   0.02976   0.0114  0.2643  1.0000  -2.4994   0.0000   0.0000   0.0000   0.2264
  10.000   1.0788   0.04724   0.03883   0.0103  0.2543  1.0000  -2.4766   0.0000   0.0000   0.0000   0.2265
  10.500   1.1158   0.04885   0.04055   0.0113  0.2480  1.0000  -2.5990   0.0000   0.0000   0.0000   0.2251
  12.500   0.8447   0.11861   0.11072  -0.0222  0.1971  1.0000  -1.8546   0.0000   0.0000   0.0000   0.2596
  13.000   0.8223   0.13031   0.12251  -0.0277  0.1864  1.0000  -1.7693   0.0000   0.0000   0.0000   0.2665
  13.500   0.8457   0.13442   0.12677  -0.0281  0.1811  1.0000  -1.8510   0.0000   0.0000   0.0000   0.2653
  14.000   0.8294   0.14549   0.13793  -0.0335  0.1718  1.0000  -1.7734   0.0000   0.0000   0.0000   0.2719
  14.500   0.8540   0.14916   0.14173  -0.0339  0.1653  1.0000  -1.8715   0.0000   0.0000   0.0000   0.2703
  15.000   0.8415   0.16008   0.15274  -0.0394  0.1577  1.0000  -1.7944   0.0000   0.0000   0.0000   0.2770


